
**** 01/16/23 09:45:54 ******* PSpice 17.4.0 (Nov 2018) ******* ID# 0 ********

 ** Profile: "SCHEMATIC1-bias"  [ c:\users\vladimir villamizar\downloads\digital input\sllm383c\k-pspicefiles\schematic1\bias.sim ] 


 ****     CIRCUIT DESCRIPTION


******************************************************************************




** Creating circuit file "bias.cir" 
** WARNING: THIS AUTOMATICALLY GENERATED FILE MAY BE OVERWRITTEN BY SUBSEQUENT SIMULATIONS

*Libraries: 
* Profile Libraries :
* Local Libraries :
* From [PSPICE NETLIST] section of C:\cds_spb_home\cdssetup\OrCAD_PSpiceTIPSpice_Install\17.4.0\PSpice.ini file:
.lib "nom_pspti.lib" 
.lib "nom.lib" 

*Analysis directives: 
.TRAN  0 1m 0 
.OPTIONS ADVCONV
.OPTIONS FILEMODELSEARCH
.PROBE64 V(alias(*)) I(alias(*)) W(alias(*)) D(alias(*)) NOISE(alias(*)) 
.INC "..\SCHEMATIC1.net" 



**** INCLUDING SCHEMATIC1.net ****
* source K
X_V3         VIN 0 Surge_V_12_50u PARAMS: VP=1000 D=0
X_I1         N14616 0 Surge_I_8_20u PARAMS: IP=23.8 D=0
R_R1         N14616 IIN  1000Meg TC=0,0 
R_R2         N14616 IIN  0.1 TC=0,0 

**** RESUMING bias.cir ****
.END

ERROR(ORPSIM-15142): Node N14616 is floating

ERROR(ORPSIM-15142): Node IIN is floating
