Circuit: * C:\Users\Vladimir Villamizar\Documents\Proyecto de grado\Power\Power_2.asc

Direct Newton iteration failed to find .op point.  (Use ".option noopiter" to skip.)
Starting Gmin stepping
Gmin = 10
Gmin = 1.07374
Gmin = 0.115292
vernier = 0.5
vernier = 0.25
Gmin = 0.0284453
vernier = 0.125
vernier = 0.0625
vernier = 0.03125
vernier = 0.015625
vernier = 0.0078125
vernier = 0.00390625
vernier = 0.00195312
Gmin = 0.0280077
vernier = 0.000976562
vernier = 0.000488281
Gmin = 0
Gmin stepping failed

Starting source stepping with srcstepmethod=0
Source Step = 3.0303%
vernier = 0.25
Source Step = 0.0177557%
Starting source stepping with srcstepmethod=1
Could not converge to DC with sources off!
Pseudo Transient failed in finding the operating point at 5.16348 µs.
Trouble finding operating point....skipping operating point for Transient analysis.
Ignoring empty pin current: Ix(u1:2)
Ignoring empty pin current: Ix(u1:4)
.step r=1
Changing Tseed to 9.76562e-09
Changing Tseed to 9.76563e-11
Changing Tseed to 9.76562e-08
Changing Tseed to 9.76562e-12
Changing Tseed to 9.76563e-07
Changing Tseed to 9.76562e-13
to 1.95312e-12
Heightened Def Con from 4.19102e-05 ++++++++++++++++++to 4.19102e-05
Heightened Def Con from 4.19102e-05 ++++++++to 4.19113e-05
Heightened Def Con from 4.19113e-05 to 4.19124e-05
.step r=5
.step r=10
.step r=20

Date: Wed Apr 26 10:09:06 2023
Total elapsed time: 1177.188 seconds.

tnom = 27
temp = 27
method = modified trap
totiter = 31055112
traniter = 12446500
tranpoints = 3960719
accept = 2880264
rejected = 1678753
matrix size = 118
fillins = 50
solver = Normal
Avg thread counts: 2.0/3.0/1.0/1.0
Matrix Compiler1: 5.48 KB object code size  1.3/0.7/[0.5]
Matrix Compiler2: 7.83 KB object code size  1.0/1.9/[0.8]

