Circuit: * C:\Users\Vladimir Villamizar\Documents\rtuindustrial\Standards (Orcad and LTspice)\IEC 61000-4-4 (EFT)\LTspice\Draft1.asc

Direct Newton iteration for .op point succeeded.

Date: Sun Jul  9 08:40:00 2023
Total elapsed time: 0.272 seconds.

tnom = 27
temp = 27
method = modified trap
totiter = 100963
traniter = 100960
tranpoints = 44216
accept = 37885
rejected = 6331
matrix size = 13
fillins = 0
solver = Normal
Avg thread counts: 1.0/1.0/1.0/1.0
Matrix Compiler1:      21 opcodes  0.2/[0.1]/0.2
Matrix Compiler2: 821 bytes object code size  0.1/0.2/[0.1]

