Circuit: * C:\Users\Vladimir Villamizar\Documents\Proyecto de grado\Estándares\Simulaciones (ondas en txt)\Estandares.asc

i2: Removing PWL point (1e-12,5.10121e-05)
i2: Removing PWL point (4.28012e-10,5.10121e-05)
i2: Removing PWL point (1.12802e-09,5.10121e-05)
i2: Removing PWL point (1.52802e-09,5.10121e-05)
i2: Removing PWL point (1.82802e-09,5.10121e-05)
v2: Removing PWL point (1e-11,0.0108415)
v2: Removing PWL point (6.40005e-10,0.0108415)
v1: Removing PWL point (1.31769e-09,2.40001e-11)
v1: Removing PWL point (2.64578e-06,2.39988e-11)
v1: Removing PWL point (4.38357e-06,2.3998e-11)
v1: Removing PWL point (4.86941e-06,2.39978e-11)
v1: Removing PWL point (4.97157e-06,2.39977e-11)
v1: Removing PWL point (4.98557e-06,2.39977e-11)
v1: Removing PWL point (4.99753e-06,2.39977e-11)
v1: Removing PWL point (5.0016e-06,2.39977e-11)
v1: Removing PWL point (5.01076e-06,2.39977e-11)
v1: Removing PWL point (0.0002,-0.00573704)
v1: Removing PWL point (0.000204064,-0.00573658)
v1: Removing PWL point (0.000204575,-0.00573652)
v1: Removing PWL point (0.00020483,-0.00573649)
v1: Removing PWL point (0.000204938,-0.00573648)
v1: Removing PWL point (0.000204993,-0.00573647)
v1: Removing PWL point (0.000204997,-0.00573647)
v1: Removing PWL point (0.000205009,-0.00573647)
v1: Removing PWL point (0.00029999,-0.00572559)
v1: Removing PWL point (0.000299999,-0.00572559)
v1: Removing PWL point (0.000301835,-0.0114737)
v1: Removing PWL point (0.000305001,-0.011473)
v1: Removing PWL point (0.0004,-0.0114512)
v1: Removing PWL point (0.000400006,-0.0114512)
v1: Removing PWL point (0.000402743,-0.0114506)
v1: Removing PWL point (0.000404401,-0.0114502)
v1: Removing PWL point (0.000404902,-0.0114501)
v1: Removing PWL point (0.000404963,-0.0114501)
v1: Removing PWL point (0.000404994,-0.01145)
v1: Removing PWL point (0.000499996,-0.0114283)
v1: Removing PWL point (0.000501836,-0.0171762)
v1: Removing PWL point (0.0006,-0.0171426)
v1: Removing PWL point (0.000603783,-0.0171413)
v1: Removing PWL point (0.000604763,-0.0171409)
v1: Removing PWL point (0.00060489,-0.0171409)
v1: Removing PWL point (0.000604953,-0.0171409)
v1: Removing PWL point (0.000604983,-0.0171409)
v1: Removing PWL point (0.000604993,-0.0171408)
v1: Removing PWL point (0.000699986,-0.0171084)
v1: Removing PWL point (0.0008,-0.0228112)
v1: Removing PWL point (0.000803944,-0.0228094)
v1: Removing PWL point (0.000804737,-0.0228091)
v1: Removing PWL point (0.000804937,-0.022809)
v1: Removing PWL point (0.000804973,-0.022809)
v1: Removing PWL point (0.000804997,-0.022809)
v1: Removing PWL point (0.000899974,-0.0227657)
v1: Removing PWL point (0.000899995,-0.0227657)
v1: Removing PWL point (0.000901809,-0.0285132)
v1: Removing PWL point (0.001,-0.0284573)
v1: Removing PWL point (0.001,-0.0284573)
v1: Removing PWL point (0.00100384,-0.0284551)
v1: Removing PWL point (0.00100472,-0.0284546)
v1: Removing PWL point (0.00100493,-0.0284545)
v1: Removing PWL point (0.00100499,-0.0284545)
v1: Removing PWL point (0.001005,-0.0284545)
v1: Removing PWL point (0.0012,-0.0340809)
v1: Removing PWL point (0.00120361,-0.0340784)
v1: Removing PWL point (0.00120449,-0.0340778)
v1: Removing PWL point (0.00120475,-0.0340776)
v1: Removing PWL point (0.00120487,-0.0340775)
v1: Removing PWL point (0.00120499,-0.0340775)
v1: Removing PWL point (0.001205,-0.0340775)
v1: Removing PWL point (0.00129997,-0.0340128)
v1: Removing PWL point (0.00129999,-0.0340128)
v1: Removing PWL point (0.0013,-0.0340128)
v1: Removing PWL point (0.00130178,-0.0397599)
v1: Removing PWL point (0.0014,-0.039682)
v1: Removing PWL point (0.00140408,-0.0396787)
v1: Removing PWL point (0.0014046,-0.0396783)
v1: Removing PWL point (0.00140486,-0.0396781)
v1: Removing PWL point (0.00140497,-0.039678)
v1: Removing PWL point (0.00140499,-0.039678)
v1: Removing PWL point (0.00140499,-0.039678)
v1: Removing PWL point (0.001405,-0.039678)
v1: Removing PWL point (0.0015,-0.0396028)
v1: Removing PWL point (0.00150178,-0.0453496)
v1: Removing PWL point (0.0016,-0.0452608)
v1: Removing PWL point (0.00160485,-0.0452564)
v1: Removing PWL point (0.00160496,-0.0452563)
v1: Removing PWL point (0.00160499,-0.0452563)
v1: Removing PWL point (0.001605,-0.0452562)
v1: Removing PWL point (0.00160501,-0.0452562)
v1: Removing PWL point (0.00169998,-0.0451705)
v1: Removing PWL point (0.0017,-0.0451704)
v1: Removing PWL point (0.00170178,-0.0509171)
v1: Removing PWL point (0.001705,-0.0509139)
v1: Removing PWL point (0.0018,-0.0508173)
v1: Removing PWL point (0.00180001,-0.0508173)
v1: Removing PWL point (0.00180394,-0.0508133)
v1: Removing PWL point (0.00180473,-0.0508125)
v1: Removing PWL point (0.00180499,-0.0508122)
v1: Removing PWL point (0.001805,-0.0508122)
v1: Removing PWL point (0.002,-0.0563517)
v1: Removing PWL point (0.002,-0.0563517)
v1: Removing PWL point (0.00200309,-0.0563482)
v1: Removing PWL point (0.00200412,-0.0563471)
v1: Removing PWL point (0.00200463,-0.0563465)
v1: Removing PWL point (0.00200488,-0.0563462)
v1: Removing PWL point (0.00200495,-0.0563461)
v1: Removing PWL point (0.00200498,-0.0563461)
v1: Removing PWL point (0.00200499,-0.0563461)
v1: Removing PWL point (0.002005,-0.0563461)
v1: Removing PWL point (0.002005,-0.0563461)
v1: Removing PWL point (0.0021,-0.0562392)
v1: Removing PWL point (0.0022,-0.061864)
v1: Removing PWL point (0.00220401,-0.061859)
v1: Removing PWL point (0.00220452,-0.0618584)
v1: Removing PWL point (0.0022049,-0.0618579)
v1: Removing PWL point (0.00220496,-0.0618579)
v1: Removing PWL point (0.00220499,-0.0618578)
v1: Removing PWL point (0.002205,-0.0618578)
v1: Removing PWL point (0.00220501,-0.0618578)
v1: Removing PWL point (0.0023,-0.0617405)
v1: Removing PWL point (0.0024,-0.0673543)
v1: Removing PWL point (0.0024,-0.0673543)
v1: Removing PWL point (0.00240281,-0.0673505)
v1: Removing PWL point (0.00240498,-0.0673476)
v1: Removing PWL point (0.00240499,-0.0673476)
v1: Removing PWL point (0.002405,-0.0673476)
v1: Removing PWL point (0.0025,-0.0672199)
v1: Removing PWL point (0.0026,-0.0728228)
v1: Removing PWL point (0.0026,-0.0728228)
v1: Removing PWL point (0.0026,-0.0728228)
v1: Removing PWL point (0.0026,-0.0728227)
v1: Removing PWL point (0.00260475,-0.0728158)
v1: Removing PWL point (0.00260487,-0.0728157)
v1: Removing PWL point (0.00260499,-0.0728155)
v1: Removing PWL point (0.002605,-0.0728155)
v1: Removing PWL point (0.002605,-0.0728155)
v1: Removing PWL point (0.00260501,-0.0728155)
v1: Removing PWL point (0.00269997,-0.0726774)
v1: Removing PWL point (0.0028,-0.0782694)
v1: Removing PWL point (0.00280263,-0.0782653)
v1: Removing PWL point (0.00280435,-0.0782626)
v1: Removing PWL point (0.00280475,-0.0782619)
v1: Removing PWL point (0.00280499,-0.0782616)
v1: Removing PWL point (0.00280499,-0.0782616)
v1: Removing PWL point (0.002805,-0.0782615)
v1: Removing PWL point (0.002805,-0.0782615)
v1: Removing PWL point (0.0029,-0.0781132)
v1: Removing PWL point (0.003,-0.0836943)
v1: Removing PWL point (0.00300281,-0.0836896)
v1: Removing PWL point (0.00300487,-0.0836861)
v1: Removing PWL point (0.00300494,-0.083686)
v1: Removing PWL point (0.003005,-0.0836859)
v1: Removing PWL point (0.003005,-0.0836859)
v1: Removing PWL point (0.00300501,-0.0836859)
v1: Removing PWL point (0.0031,-0.0835272)
v1: Removing PWL point (0.0032,-0.0890975)
v1: Removing PWL point (0.00320306,-0.0890921)
v1: Removing PWL point (0.003205,-0.0890886)
v1: Removing PWL point (0.003205,-0.0890886)
v1: Removing PWL point (0.0033,-0.0889197)
v1: Removing PWL point (0.0034,-0.0944793)
v1: Removing PWL point (0.00340306,-0.0944735)
v1: Removing PWL point (0.00340408,-0.0944715)
v1: Removing PWL point (0.00340459,-0.0944706)
v1: Removing PWL point (0.00340485,-0.0944701)
v1: Removing PWL point (0.00340499,-0.0944698)
v1: Removing PWL point (0.003405,-0.0944698)
v1: Removing PWL point (0.003405,-0.0944698)
v1: Removing PWL point (0.003405,-0.0944698)
v1: Removing PWL point (0.0035,-0.0942907)
v1: Removing PWL point (0.0035017,-0.100036)
v1: Removing PWL point (0.0036,-0.0998395)
v1: Removing PWL point (0.0036,-0.0998395)
v1: Removing PWL point (0.0036,-0.0998395)
v1: Removing PWL point (0.0036,-0.0998395)
v1: Removing PWL point (0.0036,-0.0998395)
v1: Removing PWL point (0.0036,-0.0998395)
v1: Removing PWL point (0.00360484,-0.0998298)
v1: Removing PWL point (0.00360499,-0.0998296)
v1: Removing PWL point (0.003605,-0.0998295)
v1: Removing PWL point (0.003605,-0.0998295)
v1: Removing PWL point (0.00360501,-0.0998295)
v1: Removing PWL point (0.0037,-0.0996402)
v1: Removing PWL point (0.0037017,-0.105385)
v1: Removing PWL point (0.0038,-0.105178)
v1: Removing PWL point (0.00380304,-0.105172)
v1: Removing PWL point (0.00380406,-0.10517)
v1: Removing PWL point (0.00380457,-0.105169)
v1: Removing PWL point (0.00380483,-0.105168)
v1: Removing PWL point (0.00380494,-0.105168)
v1: Removing PWL point (0.00380497,-0.105168)
v1: Removing PWL point (0.00389997,-0.104968)
v1: Removing PWL point (0.0039017,-0.110713)
v1: Removing PWL point (0.003905,-0.110706)
v1: Removing PWL point (0.004,-0.110496)
v1: Removing PWL point (0.00400002,-0.110496)
v1: Removing PWL point (0.00400302,-0.110489)
v1: Removing PWL point (0.00400404,-0.110487)
v1: Removing PWL point (0.00400455,-0.110486)
v1: Removing PWL point (0.00400482,-0.110485)
v1: Removing PWL point (0.00400494,-0.110485)
v1: Removing PWL point (0.00400497,-0.110485)
v1: Removing PWL point (0.00400499,-0.110485)
v1: Removing PWL point (0.0041,-0.110275)
v1: Removing PWL point (0.0041017,-0.11602)
v1: Removing PWL point (0.0042,-0.115792)
v1: Removing PWL point (0.004203,-0.115785)
v1: Removing PWL point (0.00420403,-0.115783)
v1: Removing PWL point (0.00420453,-0.115782)
v1: Removing PWL point (0.00420479,-0.115781)
v1: Removing PWL point (0.00420491,-0.115781)
v1: Removing PWL point (0.00420494,-0.115781)
v1: Removing PWL point (0.00420498,-0.115781)
v1: Removing PWL point (0.00429997,-0.115561)
v1: Removing PWL point (0.00429999,-0.115561)
v1: Removing PWL point (0.00430167,-0.121305)
v1: Removing PWL point (0.004305,-0.121298)
v1: Removing PWL point (0.0044,-0.121068)
v1: Removing PWL point (0.00440297,-0.12106)
v1: Removing PWL point (0.00440399,-0.121058)
v1: Removing PWL point (0.0044045,-0.121057)
v1: Removing PWL point (0.00440476,-0.121056)
v1: Removing PWL point (0.00440489,-0.121056)
v1: Removing PWL point (0.00440495,-0.121056)
v1: Removing PWL point (0.00440499,-0.121055)
v1: Removing PWL point (0.00449998,-0.120826)
v1: Removing PWL point (0.0045017,-0.12657)
v1: Removing PWL point (0.0046,-0.126322)
v1: Removing PWL point (0.00460294,-0.126314)
v1: Removing PWL point (0.00460468,-0.12631)
v1: Removing PWL point (0.00460487,-0.126309)
v1: Removing PWL point (0.00460496,-0.126309)
v1: Removing PWL point (0.00460499,-0.126309)
v1: Removing PWL point (0.00469995,-0.12607)
v1: Removing PWL point (0.00469999,-0.12607)
v1: Removing PWL point (0.00470176,-0.131814)
v1: Removing PWL point (0.0048,-0.131555)
v1: Removing PWL point (0.00480291,-0.131547)
v1: Removing PWL point (0.00480292,-0.131547)
v1: Removing PWL point (0.00480461,-0.131543)
v1: Removing PWL point (0.00480486,-0.131542)
v1: Removing PWL point (0.00480494,-0.131542)
v1: Removing PWL point (0.00480496,-0.131542)
v1: Removing PWL point (0.004805,-0.131542)
v1: Removing PWL point (0.00489997,-0.131293)
v1: Removing PWL point (0.00489999,-0.131293)
v1: Removing PWL point (0.0049017,-0.137036)
v1: Removing PWL point (0.005,-0.136767)
v1: Removing PWL point (0.00500002,-0.136767)
v1: Removing PWL point (0.00500284,-0.13676)
v1: Removing PWL point (0.00500453,-0.136755)
v1: Removing PWL point (0.00500479,-0.136754)
v1: Removing PWL point (0.00500492,-0.136754)
v1: Removing PWL point (0.00500493,-0.136754)
v1: Removing PWL point (0.00500497,-0.136754)
v1: Removing PWL point (0.00500499,-0.136754)
v1: Removing PWL point (0.00509999,-0.136494)
v1: Removing PWL point (0.0051017,-0.142238)
v1: Removing PWL point (0.0052,-0.141959)
v1: Removing PWL point (0.00520275,-0.141951)
v1: Removing PWL point (0.00520438,-0.141947)
v1: Removing PWL point (0.00520439,-0.141947)
v1: Removing PWL point (0.00520492,-0.141945)
v1: Removing PWL point (0.00520497,-0.141945)
v1: Removing PWL point (0.00520499,-0.141945)
v1: Removing PWL point (0.00529995,-0.141676)
v1: Removing PWL point (0.00529997,-0.141676)
v1: Removing PWL point (0.0053,-0.141676)
v1: Removing PWL point (0.0053017,-0.147419)
v1: Removing PWL point (0.0054,-0.14713)
v1: Removing PWL point (0.00540266,-0.147122)
v1: Removing PWL point (0.00540268,-0.147122)
v1: Removing PWL point (0.00540442,-0.147117)
v1: Removing PWL point (0.00540486,-0.147116)
v1: Removing PWL point (0.00540496,-0.147115)
v1: Removing PWL point (0.00540499,-0.147115)
v1: Removing PWL point (0.00549998,-0.146836)
v1: Removing PWL point (0.00549999,-0.146836)
v1: Removing PWL point (0.0055017,-0.15258)
v1: Removing PWL point (0.0056,-0.15228)
v1: Removing PWL point (0.00560002,-0.15228)
v1: Removing PWL point (0.00560257,-0.152272)
v1: Removing PWL point (0.00560449,-0.152267)
v1: Removing PWL point (0.00560475,-0.152266)
v1: Removing PWL point (0.00560487,-0.152265)
v1: Removing PWL point (0.00560498,-0.152265)
v1: Removing PWL point (0.00560501,-0.152265)
v1: Removing PWL point (0.0057,-0.151976)
v1: Removing PWL point (0.00570167,-0.157719)
v1: Removing PWL point (0.0058,-0.15741)
v1: Removing PWL point (0.00580402,-0.157397)
v1: Removing PWL point (0.00580404,-0.157397)
v1: Removing PWL point (0.00580454,-0.157396)
v1: Removing PWL point (0.00580455,-0.157396)
v1: Removing PWL point (0.00580479,-0.157395)
v1: Removing PWL point (0.00580492,-0.157394)
v1: Removing PWL point (0.00580497,-0.157394)
v1: Removing PWL point (0.00580498,-0.157394)
v1: Removing PWL point (0.00589997,-0.157096)
v1: Removing PWL point (0.0059,-0.157096)
v1: Removing PWL point (0.00590167,-0.162839)
v1: Removing PWL point (0.005905,-0.162828)
v1: Removing PWL point (0.006,-0.162519)
v1: Removing PWL point (0.00600383,-0.162507)
v1: Removing PWL point (0.00600384,-0.162507)
v1: Removing PWL point (0.0060047,-0.162504)
v1: Removing PWL point (0.00600496,-0.162503)
v1: Removing PWL point (0.00600499,-0.162503)
v1: Removing PWL point (0.00600501,-0.162503)
v1: Removing PWL point (0.00609997,-0.162195)
v1: Removing PWL point (0.00609999,-0.162195)
v1: Removing PWL point (0.00610167,-0.167937)
v1: Removing PWL point (0.0062,-0.167608)
v1: Removing PWL point (0.00620385,-0.167595)
v1: Removing PWL point (0.00620472,-0.167592)
v1: Removing PWL point (0.00620492,-0.167592)
v1: Removing PWL point (0.00620497,-0.167592)
v1: Removing PWL point (0.00620498,-0.167592)
v1: Removing PWL point (0.006205,-0.167591)
v1: Removing PWL point (0.00629999,-0.167274)
v1: Removing PWL point (0.00630167,-0.173016)
v1: Removing PWL point (0.0064,-0.172677)
v1: Removing PWL point (0.0064035,-0.172665)
v1: Removing PWL point (0.00640452,-0.172661)
v1: Removing PWL point (0.00640478,-0.17266)
v1: Removing PWL point (0.0064049,-0.17266)
v1: Removing PWL point (0.00640497,-0.17266)
v1: Removing PWL point (0.00640498,-0.17266)
v1: Removing PWL point (0.00640501,-0.172659)
v1: Removing PWL point (0.00649998,-0.172332)
v1: Removing PWL point (0.0066,-0.177725)
v1: Removing PWL point (0.00660378,-0.177712)
v1: Removing PWL point (0.00660476,-0.177708)
v1: Removing PWL point (0.00660489,-0.177708)
v1: Removing PWL point (0.00660495,-0.177708)
v1: Removing PWL point (0.00660498,-0.177707)
v1: Removing PWL point (0.006605,-0.177707)
v1: Removing PWL point (0.00669999,-0.17737)
v1: Removing PWL point (0.00670167,-0.183113)
v1: Removing PWL point (0.0068,-0.182753)
v1: Removing PWL point (0.00680374,-0.18274)
v1: Removing PWL point (0.00680487,-0.182736)
v1: Removing PWL point (0.00680497,-0.182735)
v1: Removing PWL point (0.00680498,-0.182735)
v1: Removing PWL point (0.006805,-0.182735)
v1: Removing PWL point (0.00680503,-0.182735)
v1: Removing PWL point (0.00689997,-0.182389)
v1: Removing PWL point (0.00689999,-0.182389)
v1: Removing PWL point (0.00690167,-0.188131)
v1: Removing PWL point (0.007,-0.187762)
v1: Removing PWL point (0.00700439,-0.187745)
v1: Removing PWL point (0.00700488,-0.187743)
v1: Removing PWL point (0.00700495,-0.187743)
v1: Removing PWL point (0.00700498,-0.187743)
v1: Removing PWL point (0.007005,-0.187743)
v1: Removing PWL point (0.00709997,-0.187387)
v1: Removing PWL point (0.0071,-0.187387)
v1: Removing PWL point (0.00710167,-0.193129)
v1: Removing PWL point (0.0072,-0.19275)
v1: Removing PWL point (0.00720449,-0.192733)
v1: Removing PWL point (0.0072049,-0.192731)
v1: Removing PWL point (0.00720496,-0.192731)
v1: Removing PWL point (0.00720499,-0.192731)
v1: Removing PWL point (0.00729995,-0.192365)
v1: Removing PWL point (0.00729997,-0.192365)
v1: Removing PWL point (0.0073,-0.192365)
v1: Removing PWL point (0.0074,-0.197718)
v1: Removing PWL point (0.00740301,-0.197706)
v1: Removing PWL point (0.00740404,-0.197702)
v1: Removing PWL point (0.00740455,-0.1977)
v1: Removing PWL point (0.0074048,-0.197699)
v1: Removing PWL point (0.00740493,-0.197699)
v1: Removing PWL point (0.00740499,-0.197699)
v1: Removing PWL point (0.007405,-0.197698)
v1: Removing PWL point (0.00749998,-0.197324)
v1: Removing PWL point (0.00750167,-0.203065)
v1: Removing PWL point (0.0076,-0.202667)
v1: Removing PWL point (0.00760391,-0.202651)
v1: Removing PWL point (0.00760475,-0.202648)
v1: Removing PWL point (0.00760488,-0.202647)
v1: Removing PWL point (0.00760494,-0.202647)
v1: Removing PWL point (0.00760497,-0.202647)
v1: Removing PWL point (0.00760498,-0.202647)
v1: Removing PWL point (0.00760501,-0.202646)
v1: Removing PWL point (0.0077,-0.202262)
v1: Removing PWL point (0.00770167,-0.208004)
v1: Removing PWL point (0.0078,-0.207596)
v1: Removing PWL point (0.00780376,-0.20758)
v1: Removing PWL point (0.00780489,-0.207575)
v1: Removing PWL point (0.00780495,-0.207575)
v1: Removing PWL point (0.00780498,-0.207575)
v1: Removing PWL point (0.00780499,-0.207575)
v1: Removing PWL point (0.00789994,-0.207181)
v1: Removing PWL point (0.00789997,-0.207181)
v1: Removing PWL point (0.00789999,-0.207181)
v1: Removing PWL point (0.00790166,-0.212922)
v1: Removing PWL point (0.008,-0.212505)
v1: Removing PWL point (0.00800001,-0.212505)
v1: Removing PWL point (0.00800434,-0.212486)
v1: Removing PWL point (0.00800475,-0.212485)
v1: Removing PWL point (0.00800487,-0.212484)
v1: Removing PWL point (0.00800494,-0.212484)
v1: Removing PWL point (0.00800499,-0.212484)
v1: Removing PWL point (0.008005,-0.212483)
v1: Removing PWL point (0.00809181,-0.212115)
v1: Removing PWL point (0.00809997,-0.212081)
v1: Removing PWL point (0.0081,-0.212081)
v1: Removing PWL point (0.00810167,-0.217822)
v1: Removing PWL point (0.0082,-0.217394)
v1: Removing PWL point (0.00820373,-0.217378)
v1: Removing PWL point (0.00820479,-0.217373)
v1: Removing PWL point (0.0082049,-0.217373)
v1: Removing PWL point (0.00820496,-0.217373)
v1: Removing PWL point (0.00820498,-0.217373)
v1: Removing PWL point (0.008205,-0.217373)
v1: Removing PWL point (0.0083,-0.21696)
v1: Removing PWL point (0.00830167,-0.222701)
v1: Removing PWL point (0.0084,-0.222264)
v1: Removing PWL point (0.00840384,-0.222247)
v1: Removing PWL point (0.00840472,-0.222243)
v1: Removing PWL point (0.00840492,-0.222242)
v1: Removing PWL point (0.00840497,-0.222242)
v1: Removing PWL point (0.00840499,-0.222242)
v1: Removing PWL point (0.00849999,-0.221821)
v1: Removing PWL point (0.00850167,-0.227561)
v1: Removing PWL point (0.008505,-0.227546)
v1: Removing PWL point (0.0086,-0.227115)
v1: Removing PWL point (0.00860252,-0.227104)
v1: Removing PWL point (0.00860444,-0.227095)
v1: Removing PWL point (0.00860484,-0.227093)
v1: Removing PWL point (0.00860494,-0.227093)
v1: Removing PWL point (0.00860497,-0.227093)
v1: Removing PWL point (0.00860499,-0.227092)
v1: Removing PWL point (0.008605,-0.227092)
v1: Removing PWL point (0.00869997,-0.226662)
v1: Removing PWL point (0.0087,-0.226662)
v1: Removing PWL point (0.00870164,-0.232402)
v1: Removing PWL point (0.0088,-0.231946)
v1: Removing PWL point (0.00880255,-0.231934)
v1: Removing PWL point (0.00880461,-0.231925)
v1: Removing PWL point (0.00880486,-0.231924)
v1: Removing PWL point (0.00880496,-0.231923)
v1: Removing PWL point (0.00880499,-0.231923)
v1: Removing PWL point (0.00880501,-0.231923)
v1: Removing PWL point (0.00889999,-0.231483)
v1: Removing PWL point (0.00890164,-0.237224)
v1: Removing PWL point (0.009,-0.236758)
v1: Removing PWL point (0.00900001,-0.236758)
v1: Removing PWL point (0.00900257,-0.236746)
v1: Removing PWL point (0.00900473,-0.236736)
v1: Removing PWL point (0.00900495,-0.236735)
v1: Removing PWL point (0.00900498,-0.236735)
v1: Removing PWL point (0.009005,-0.236735)
v1: Removing PWL point (0.00900503,-0.236735)
v1: Removing PWL point (0.00909998,-0.236286)
v1: Removing PWL point (0.00909999,-0.236286)
v1: Removing PWL point (0.0092,-0.241551)
v1: Removing PWL point (0.0092026,-0.241539)
v1: Removing PWL point (0.00920494,-0.241527)
v1: Removing PWL point (0.00920497,-0.241527)
v1: Removing PWL point (0.00920499,-0.241527)
v1: Removing PWL point (0.00929997,-0.241069)
v1: Removing PWL point (0.00929999,-0.241069)
v1: Removing PWL point (0.0094,-0.246325)
v1: Removing PWL point (0.0094029,-0.246311)
v1: Removing PWL point (0.00940455,-0.246302)
v1: Removing PWL point (0.00940481,-0.246301)
v1: Removing PWL point (0.00940494,-0.246301)
v1: Removing PWL point (0.00940499,-0.2463)
v1: Removing PWL point (0.009405,-0.2463)
v1: Removing PWL point (0.00949903,-0.245838)
v1: Removing PWL point (0.00949993,-0.245834)
v1: Removing PWL point (0.00949998,-0.245833)
v1: Removing PWL point (0.00949999,-0.245833)
v1: Removing PWL point (0.00950164,-0.251573)
v1: Removing PWL point (0.0096,-0.25108)
v1: Removing PWL point (0.00960264,-0.251066)
v1: Removing PWL point (0.00960437,-0.251058)
v1: Removing PWL point (0.00960496,-0.251055)
v1: Removing PWL point (0.00960499,-0.251055)
v1: Removing PWL point (0.009605,-0.251055)
v1: Removing PWL point (0.00969997,-0.250579)
v1: Removing PWL point (0.0097,-0.250578)
v1: Removing PWL point (0.009705,-0.256301)
v1: Removing PWL point (0.0098,-0.255815)
v1: Removing PWL point (0.0098,-0.255815)
v1: Removing PWL point (0.0098,-0.255815)
v1: Removing PWL point (0.00980266,-0.255802)
v1: Removing PWL point (0.00980441,-0.255793)
v1: Removing PWL point (0.00980484,-0.255791)
v1: Removing PWL point (0.00980494,-0.25579)
v1: Removing PWL point (0.00980497,-0.25579)
v1: Removing PWL point (0.00980498,-0.25579)
v1: Removing PWL point (0.00980499,-0.25579)
v1: Removing PWL point (0.00980501,-0.25579)
v1: Removing PWL point (0.00989999,-0.255305)
v1: Removing PWL point (0.009905,-0.261027)
v1: Removing PWL point (0.01,-0.260532)
v1: Removing PWL point (0.0100027,-0.260518)
v1: Removing PWL point (0.0100044,-0.260509)
v1: Removing PWL point (0.0100048,-0.260507)
v1: Removing PWL point (0.0100049,-0.260506)
v1: Removing PWL point (0.010005,-0.260506)
v1: Removing PWL point (0.010005,-0.260506)
v1: Removing PWL point (0.010005,-0.260506)
v1: Removing PWL point (0.0101,-0.260012)
v1: Removing PWL point (0.0101016,-0.265751)
v1: Removing PWL point (0.0102,-0.26523)
v1: Removing PWL point (0.0102031,-0.265214)
v1: Removing PWL point (0.0102041,-0.265208)
v1: Removing PWL point (0.0102046,-0.265206)
v1: Removing PWL point (0.0102049,-0.265204)
v1: Removing PWL point (0.0102049,-0.265204)
v1: Removing PWL point (0.010205,-0.265204)
v1: Removing PWL point (0.0103,-0.264701)
v1: Removing PWL point (0.0103,-0.264701)
v1: Removing PWL point (0.0103016,-0.27044)
v1: Removing PWL point (0.0104,-0.269909)
v1: Removing PWL point (0.0104031,-0.269893)
v1: Removing PWL point (0.0104041,-0.269887)
v1: Removing PWL point (0.0104046,-0.269884)
v1: Removing PWL point (0.0104049,-0.269883)
v1: Removing PWL point (0.0104049,-0.269883)
v1: Removing PWL point (0.010405,-0.269883)
v1: Removing PWL point (0.010405,-0.269882)
v1: Removing PWL point (0.0105,-0.269371)
v1: Removing PWL point (0.0106,-0.27457)
v1: Removing PWL point (0.0106031,-0.274553)
v1: Removing PWL point (0.0106041,-0.274547)
v1: Removing PWL point (0.0106047,-0.274545)
v1: Removing PWL point (0.0106049,-0.274543)
v1: Removing PWL point (0.0106049,-0.274543)
v1: Removing PWL point (0.010605,-0.274543)
v1: Removing PWL point (0.0107,-0.274022)
v1: Removing PWL point (0.0107016,-0.279761)
v1: Removing PWL point (0.010705,-0.279743)
v1: Removing PWL point (0.0108,-0.279212)
v1: Removing PWL point (0.0108031,-0.279195)
v1: Removing PWL point (0.0108042,-0.279189)
v1: Removing PWL point (0.0108047,-0.279186)
v1: Removing PWL point (0.0108049,-0.279185)
v1: Removing PWL point (0.0108049,-0.279185)
v1: Removing PWL point (0.010805,-0.279184)
v1: Removing PWL point (0.010805,-0.279184)
v1: Removing PWL point (0.0109,-0.278655)
v1: Removing PWL point (0.011,-0.283836)
v1: Removing PWL point (0.0110031,-0.283818)
v1: Removing PWL point (0.0110042,-0.283812)
v1: Removing PWL point (0.0110047,-0.283809)
v1: Removing PWL point (0.0110049,-0.283808)
v1: Removing PWL point (0.0110049,-0.283808)
v1: Removing PWL point (0.011005,-0.283807)
v1: Removing PWL point (0.011005,-0.283807)
v1: Removing PWL point (0.011005,-0.283807)
v1: Removing PWL point (0.0111,-0.283269)
v1: Removing PWL point (0.0111,-0.283269)
v1: Removing PWL point (0.0111016,-0.289008)
v1: Removing PWL point (0.0112,-0.288441)
v1: Removing PWL point (0.0112031,-0.288423)
v1: Removing PWL point (0.0112042,-0.288417)
v1: Removing PWL point (0.0112047,-0.288414)
v1: Removing PWL point (0.0112049,-0.288413)
v1: Removing PWL point (0.0112049,-0.288412)
v1: Removing PWL point (0.011205,-0.288412)
v1: Removing PWL point (0.011205,-0.288412)
v1: Removing PWL point (0.011205,-0.288412)
v1: Removing PWL point (0.0112918,-0.287912)
v1: Removing PWL point (0.0113,-0.287865)
v1: Removing PWL point (0.0114,-0.293027)
v1: Removing PWL point (0.0114032,-0.293009)
v1: Removing PWL point (0.0114042,-0.293003)
v1: Removing PWL point (0.0114047,-0.293)
v1: Removing PWL point (0.011405,-0.292998)
v1: Removing PWL point (0.011405,-0.292998)
v1: Removing PWL point (0.0115,-0.292443)
v1: Removing PWL point (0.0115016,-0.298181)
v1: Removing PWL point (0.0116,-0.297596)
v1: Removing PWL point (0.0116,-0.297596)
v1: Removing PWL point (0.0116032,-0.297577)
v1: Removing PWL point (0.0116042,-0.297571)
v1: Removing PWL point (0.0116047,-0.297568)
v1: Removing PWL point (0.0116049,-0.297567)
v1: Removing PWL point (0.011605,-0.297566)
v1: Removing PWL point (0.011605,-0.297566)
v1: Removing PWL point (0.011605,-0.297566)
v1: Removing PWL point (0.011605,-0.297566)
v1: Removing PWL point (0.0117,-0.297002)
v1: Removing PWL point (0.0118,-0.302146)
v1: Removing PWL point (0.0118032,-0.302127)
v1: Removing PWL point (0.0118042,-0.302121)
v1: Removing PWL point (0.0118047,-0.302118)
v1: Removing PWL point (0.0118049,-0.302116)
v1: Removing PWL point (0.011805,-0.302116)
v1: Removing PWL point (0.011805,-0.302116)
v1: Removing PWL point (0.011805,-0.302116)
v1: Removing PWL point (0.0119,-0.301543)
v1: Removing PWL point (0.0119016,-0.307281)
v1: Removing PWL point (0.012,-0.306678)
v1: Removing PWL point (0.012,-0.306678)
v1: Removing PWL point (0.0120032,-0.306659)
v1: Removing PWL point (0.0120042,-0.306652)
v1: Removing PWL point (0.0120047,-0.306649)
v1: Removing PWL point (0.0120049,-0.306648)
v1: Removing PWL point (0.012005,-0.306648)
v1: Removing PWL point (0.012005,-0.306648)
v1: Removing PWL point (0.012005,-0.306648)
v1: Removing PWL point (0.0121,-0.306066)
v1: Removing PWL point (0.0121,-0.306066)
v1: Removing PWL point (0.0121016,-0.311804)
v1: Removing PWL point (0.0122,-0.311192)
v1: Removing PWL point (0.0122,-0.311192)
v1: Removing PWL point (0.0122,-0.311192)
v1: Removing PWL point (0.0122,-0.311192)
v1: Removing PWL point (0.0122,-0.311192)
v1: Removing PWL point (0.0122032,-0.311172)
v1: Removing PWL point (0.0122042,-0.311166)
v1: Removing PWL point (0.0122047,-0.311163)
v1: Removing PWL point (0.0122049,-0.311162)
v1: Removing PWL point (0.012205,-0.311161)
v1: Removing PWL point (0.012205,-0.311161)
v1: Removing PWL point (0.0123,-0.310571)
v1: Removing PWL point (0.0123,-0.310571)
v1: Removing PWL point (0.0124,-0.315688)
v1: Removing PWL point (0.0124,-0.315688)
v1: Removing PWL point (0.0124032,-0.315668)
v1: Removing PWL point (0.0124042,-0.315662)
v1: Removing PWL point (0.0124047,-0.315659)
v1: Removing PWL point (0.0124049,-0.315657)
v1: Removing PWL point (0.012405,-0.315657)
v1: Removing PWL point (0.012405,-0.315657)
v1: Removing PWL point (0.012405,-0.315657)
v1: Removing PWL point (0.0125,-0.315058)
v1: Removing PWL point (0.0125,-0.315058)
v1: Removing PWL point (0.0125016,-0.320796)
v1: Removing PWL point (0.0126,-0.320166)
v1: Removing PWL point (0.0126038,-0.320142)
v1: Removing PWL point (0.0126047,-0.320136)
v1: Removing PWL point (0.0126049,-0.320135)
v1: Removing PWL point (0.012605,-0.320134)
v1: Removing PWL point (0.012605,-0.320134)
v1: Removing PWL point (0.012605,-0.320134)
v1: Removing PWL point (0.0127,-0.319527)
v1: Removing PWL point (0.0127,-0.319527)
v1: Removing PWL point (0.0127,-0.319527)
v1: Removing PWL point (0.0127016,-0.325265)
v1: Removing PWL point (0.0128,-0.324626)
v1: Removing PWL point (0.0128032,-0.324606)
v1: Removing PWL point (0.0128042,-0.324599)
v1: Removing PWL point (0.0128047,-0.324596)
v1: Removing PWL point (0.012805,-0.324594)
v1: Removing PWL point (0.012805,-0.324594)
v1: Removing PWL point (0.012805,-0.324594)
v1: Removing PWL point (0.0129,-0.323979)
v1: Removing PWL point (0.0129,-0.323979)
v1: Removing PWL point (0.012905,-0.329694)
v1: Removing PWL point (0.013,-0.329069)
v1: Removing PWL point (0.013,-0.329069)
v1: Removing PWL point (0.0130032,-0.329048)
v1: Removing PWL point (0.0130042,-0.329041)
v1: Removing PWL point (0.0130047,-0.329038)
v1: Removing PWL point (0.0130049,-0.329037)
v1: Removing PWL point (0.013005,-0.329036)
v1: Removing PWL point (0.013005,-0.329036)
v1: Removing PWL point (0.013005,-0.329036)
v1: Removing PWL point (0.0131,-0.328412)
v1: Removing PWL point (0.0132,-0.333494)
v1: Removing PWL point (0.0132032,-0.333472)
v1: Removing PWL point (0.0132042,-0.333465)
v1: Removing PWL point (0.0132047,-0.333462)
v1: Removing PWL point (0.0132049,-0.333461)
v1: Removing PWL point (0.013205,-0.33346)
v1: Removing PWL point (0.013205,-0.33346)
v1: Removing PWL point (0.013205,-0.33346)
v1: Removing PWL point (0.0133,-0.332828)
v1: Removing PWL point (0.0133016,-0.338565)
v1: Removing PWL point (0.0134,-0.337901)
v1: Removing PWL point (0.0134032,-0.337879)
v1: Removing PWL point (0.0134042,-0.337872)
v1: Removing PWL point (0.0134047,-0.337869)
v1: Removing PWL point (0.0134049,-0.337867)
v1: Removing PWL point (0.013405,-0.337867)
v1: Removing PWL point (0.013405,-0.337867)
v1: Removing PWL point (0.013405,-0.337867)
v1: Removing PWL point (0.0135,-0.337226)
v1: Removing PWL point (0.0135016,-0.342963)
v1: Removing PWL point (0.013505,-0.34294)
v1: Removing PWL point (0.0136,-0.34229)
v1: Removing PWL point (0.0136032,-0.342268)
v1: Removing PWL point (0.0136042,-0.342261)
v1: Removing PWL point (0.0136047,-0.342258)
v1: Removing PWL point (0.0136049,-0.342256)
v1: Removing PWL point (0.013605,-0.342256)
v1: Removing PWL point (0.013605,-0.342256)
v1: Removing PWL point (0.013605,-0.342256)
v1: Removing PWL point (0.013605,-0.342256)
v1: Removing PWL point (0.0137,-0.341607)
v1: Removing PWL point (0.0138,-0.346662)
v1: Removing PWL point (0.0138,-0.346662)
v1: Removing PWL point (0.0138032,-0.34664)
v1: Removing PWL point (0.0138042,-0.346633)
v1: Removing PWL point (0.0138047,-0.346629)
v1: Removing PWL point (0.0138049,-0.346628)
v1: Removing PWL point (0.0138049,-0.346628)
v1: Removing PWL point (0.013805,-0.346628)
v1: Removing PWL point (0.013805,-0.346628)
v1: Removing PWL point (0.013805,-0.346627)
v1: Removing PWL point (0.0139,-0.34597)
v1: Removing PWL point (0.0139,-0.34597)
v1: Removing PWL point (0.014,-0.351017)
v1: Removing PWL point (0.0140032,-0.350994)
v1: Removing PWL point (0.0140042,-0.350987)
v1: Removing PWL point (0.0140048,-0.350983)
v1: Removing PWL point (0.0140049,-0.350982)
v1: Removing PWL point (0.0140049,-0.350982)
v1: Removing PWL point (0.014005,-0.350982)
v1: Removing PWL point (0.014005,-0.350982)
v1: Removing PWL point (0.014005,-0.350982)
v1: Removing PWL point (0.0140959,-0.350345)
v1: Removing PWL point (0.0141,-0.350316)
v1: Removing PWL point (0.0141016,-0.356052)
v1: Removing PWL point (0.0142,-0.355354)
v1: Removing PWL point (0.0142032,-0.355331)
v1: Removing PWL point (0.0142048,-0.35532)
v1: Removing PWL point (0.0142049,-0.355319)
v1: Removing PWL point (0.0142049,-0.355319)
v1: Removing PWL point (0.014205,-0.355318)
v1: Removing PWL point (0.014205,-0.355318)
v1: Removing PWL point (0.014205,-0.355318)
v1: Removing PWL point (0.0143,-0.354645)
v1: Removing PWL point (0.0143,-0.354645)
v1: Removing PWL point (0.0144,-0.359674)
v1: Removing PWL point (0.0144,-0.359674)
v1: Removing PWL point (0.0144,-0.359674)
v1: Removing PWL point (0.0144,-0.359674)
v1: Removing PWL point (0.0144,-0.359674)
v1: Removing PWL point (0.0144,-0.359674)
v1: Removing PWL point (0.0144032,-0.359651)
v1: Removing PWL point (0.0144048,-0.35964)
v1: Removing PWL point (0.0144049,-0.359638)
v1: Removing PWL point (0.014405,-0.359638)
v1: Removing PWL point (0.014405,-0.359638)
v1: Removing PWL point (0.014405,-0.359638)
v1: Removing PWL point (0.014405,-0.359638)
v1: Removing PWL point (0.0145,-0.358956)
v1: Removing PWL point (0.0146,-0.363976)
v1: Removing PWL point (0.0146032,-0.363953)
v1: Removing PWL point (0.0146043,-0.363945)
v1: Removing PWL point (0.0146048,-0.363942)
v1: Removing PWL point (0.014605,-0.36394)
v1: Removing PWL point (0.014605,-0.36394)
v1: Removing PWL point (0.014605,-0.36394)
v1: Removing PWL point (0.0147,-0.36325)
v1: Removing PWL point (0.0147,-0.36325)
v1: Removing PWL point (0.0147,-0.36325)
v1: Removing PWL point (0.0147016,-0.368986)
v1: Removing PWL point (0.0148,-0.368262)
v1: Removing PWL point (0.0148032,-0.368238)
v1: Removing PWL point (0.0148043,-0.368231)
v1: Removing PWL point (0.0148049,-0.368226)
v1: Removing PWL point (0.014805,-0.368225)
v1: Removing PWL point (0.014805,-0.368225)
v1: Removing PWL point (0.014805,-0.368225)
v1: Removing PWL point (0.0149,-0.367527)
v1: Removing PWL point (0.0149016,-0.373263)
v1: Removing PWL point (0.015,-0.37253)
v1: Removing PWL point (0.015,-1.86638e-08)
v1: Removing PWL point (0.0151017,-1.86638e-08)
v1: Removing PWL point (0.0151018,-1.86638e-08)
v1: Removing PWL point (0.0153017,-1.86638e-08)
v1: Removing PWL point (0.0153018,-1.86638e-08)
v1: Removing PWL point (0.0155017,-1.86638e-08)
v1: Removing PWL point (0.0155018,-1.86638e-08)
v1: Removing PWL point (0.0157018,-1.86638e-08)
v1: Removing PWL point (0.0159017,-1.86638e-08)
v1: Removing PWL point (0.0159018,-1.86638e-08)
v1: Removing PWL point (0.0161017,-1.86638e-08)
v1: Removing PWL point (0.0161018,-1.86638e-08)
v1: Removing PWL point (0.0163017,-1.86638e-08)
v1: Removing PWL point (0.0163018,-1.86638e-08)
v1: Removing PWL point (0.0165017,-1.86638e-08)
v1: Removing PWL point (0.0165018,-1.86638e-08)
v1: Removing PWL point (0.0167017,-1.86638e-08)
v1: Removing PWL point (0.0167018,-1.86638e-08)
v1: Removing PWL point (0.0169017,-1.86638e-08)
v1: Removing PWL point (0.0169018,-1.86638e-08)
v1: Removing PWL point (0.0171017,-1.86638e-08)
v1: Removing PWL point (0.0171018,-1.86638e-08)
v1: Removing PWL point (0.0173017,-1.86638e-08)
v1: Removing PWL point (0.0173018,-1.86638e-08)
v1: Removing PWL point (0.0175017,-1.86638e-08)
v1: Removing PWL point (0.0175018,-1.86638e-08)
v1: Removing PWL point (0.0177017,-1.86638e-08)
v1: Removing PWL point (0.0177018,-1.86638e-08)
v1: Removing PWL point (0.0179017,-1.86638e-08)
v1: Removing PWL point (0.0179018,-1.86638e-08)
v1: Removing PWL point (0.0181017,-1.86638e-08)
v1: Removing PWL point (0.0181018,-1.86638e-08)
v1: Removing PWL point (0.0183017,-1.86638e-08)
v1: Removing PWL point (0.0183018,-1.86638e-08)
v1: Removing PWL point (0.0185017,-1.86638e-08)
v1: Removing PWL point (0.0185018,-1.86638e-08)
v1: Removing PWL point (0.0187017,-1.86638e-08)
v1: Removing PWL point (0.0187018,-1.86638e-08)
v1: Removing PWL point (0.0189017,-1.86638e-08)
v1: Removing PWL point (0.0189018,-1.86638e-08)
v1: Removing PWL point (0.0191017,-1.86638e-08)
v1: Removing PWL point (0.0191018,-1.86638e-08)
v1: Removing PWL point (0.0193017,-1.86638e-08)
v1: Removing PWL point (0.0193018,-1.86638e-08)
v1: Removing PWL point (0.0195017,-1.86638e-08)
v1: Removing PWL point (0.0195018,-1.86638e-08)
v1: Removing PWL point (0.0197017,-1.86638e-08)
v1: Removing PWL point (0.0197018,-1.86638e-08)
v1: Removing PWL point (0.0199017,-1.86638e-08)
v1: Removing PWL point (0.0199018,-1.86638e-08)
v1: Removing PWL point (0.0201017,-1.86638e-08)
v1: Removing PWL point (0.0201018,-1.86638e-08)
v1: Removing PWL point (0.0203017,-1.86638e-08)
v1: Removing PWL point (0.0203018,-1.86638e-08)
v1: Removing PWL point (0.0205017,-1.86638e-08)
v1: Removing PWL point (0.0205018,-1.86638e-08)
v1: Removing PWL point (0.0207017,-1.86638e-08)
v1: Removing PWL point (0.0207018,-1.86638e-08)
v1: Removing PWL point (0.0209017,-1.86638e-08)
v1: Removing PWL point (0.0209018,-1.86638e-08)
v1: Removing PWL point (0.0211017,-1.86638e-08)
v1: Removing PWL point (0.0211018,-1.86638e-08)
v1: Removing PWL point (0.0213017,-1.86638e-08)
v1: Removing PWL point (0.0213018,-1.86638e-08)
v1: Removing PWL point (0.0215017,-1.86638e-08)
v1: Removing PWL point (0.0215018,-1.86638e-08)
v1: Removing PWL point (0.0217017,-1.86638e-08)
v1: Removing PWL point (0.0217018,-1.86638e-08)
v1: Removing PWL point (0.0219017,-1.86638e-08)
v1: Removing PWL point (0.0219018,-1.86638e-08)
v1: Removing PWL point (0.0221017,-1.86638e-08)
v1: Removing PWL point (0.0221018,-1.86638e-08)
v1: Removing PWL point (0.0223017,-1.86638e-08)
v1: Removing PWL point (0.0223018,-1.86638e-08)
v1: Removing PWL point (0.0225017,-1.86638e-08)
v1: Removing PWL point (0.0225018,-1.86638e-08)
v1: Removing PWL point (0.0227017,-1.86638e-08)
v1: Removing PWL point (0.0227018,-1.86638e-08)
v1: Removing PWL point (0.0229017,-1.86638e-08)
v1: Removing PWL point (0.0229018,-1.86638e-08)
v1: Removing PWL point (0.0231017,-1.86638e-08)
v1: Removing PWL point (0.0231018,-1.86638e-08)
v1: Removing PWL point (0.0233017,-1.86638e-08)
v1: Removing PWL point (0.0233018,-1.86638e-08)
v1: Removing PWL point (0.0235017,-1.86638e-08)
v1: Removing PWL point (0.0235018,-1.86638e-08)
v1: Removing PWL point (0.0237017,-1.86638e-08)
v1: Removing PWL point (0.0237018,-1.86638e-08)
v1: Removing PWL point (0.0239017,-1.86638e-08)
v1: Removing PWL point (0.0239018,-1.86638e-08)
v1: Removing PWL point (0.0241017,-1.86638e-08)
v1: Removing PWL point (0.0241018,-1.86638e-08)
v1: Removing PWL point (0.0243017,-1.86638e-08)
v1: Removing PWL point (0.0243018,-1.86638e-08)
v1: Removing PWL point (0.0245017,-1.86638e-08)
v1: Removing PWL point (0.0245018,-1.86638e-08)
v1: Removing PWL point (0.0247017,-1.86638e-08)
v1: Removing PWL point (0.0247018,-1.86638e-08)
v1: Removing PWL point (0.0249017,-1.86638e-08)
v1: Removing PWL point (0.0249018,-1.86638e-08)
v1: Removing PWL point (0.0251017,-1.86638e-08)
v1: Removing PWL point (0.0251018,-1.86638e-08)
v1: Removing PWL point (0.0253017,-1.86638e-08)
v1: Removing PWL point (0.0253018,-1.86638e-08)
v1: Removing PWL point (0.0255017,-1.86638e-08)
v1: Removing PWL point (0.0255018,-1.86638e-08)
v1: Removing PWL point (0.0257017,-1.86638e-08)
v1: Removing PWL point (0.0257018,-1.86638e-08)
v1: Removing PWL point (0.0259017,-1.86638e-08)
v1: Removing PWL point (0.0259018,-1.86638e-08)
v1: Removing PWL point (0.0261017,-1.86638e-08)
v1: Removing PWL point (0.0261018,-1.86638e-08)
v1: Removing PWL point (0.0263017,-1.86638e-08)
v1: Removing PWL point (0.0263018,-1.86638e-08)
v1: Removing PWL point (0.0265017,-1.86638e-08)
v1: Removing PWL point (0.0265018,-1.86638e-08)
v1: Removing PWL point (0.0267017,-1.86638e-08)
v1: Removing PWL point (0.0267018,-1.86638e-08)
v1: Removing PWL point (0.0269018,-1.86638e-08)
v1: Removing PWL point (0.0271018,-1.86638e-08)
v1: Removing PWL point (0.0273018,-1.86638e-08)
v1: Removing PWL point (0.0275018,-1.86638e-08)
v1: Removing PWL point (0.0277018,-1.86638e-08)
v1: Removing PWL point (0.0279018,-1.86638e-08)
v1: Removing PWL point (0.0281018,-1.86638e-08)
v1: Removing PWL point (0.0283018,-1.86638e-08)
v1: Removing PWL point (0.0285018,-1.86638e-08)
v1: Removing PWL point (0.0287018,-1.86638e-08)
v1: Removing PWL point (0.0289018,-1.86638e-08)
v1: Removing PWL point (0.0291018,-1.86638e-08)
v1: Removing PWL point (0.0293018,-1.86638e-08)
v1: Removing PWL point (0.0295018,-1.86638e-08)
v1: Removing PWL point (0.0297018,-1.86638e-08)
v1: Removing PWL point (0.0299018,-1.86638e-08)
v1: Removing PWL point (0.0301018,-1.86638e-08)
v1: Removing PWL point (0.0303018,-1.86638e-08)
v1: Removing PWL point (0.0305018,-1.86638e-08)
v1: Removing PWL point (0.0307018,-1.86638e-08)
v1: Removing PWL point (0.0309018,-1.86638e-08)
v1: Removing PWL point (0.0311018,-1.86638e-08)
v1: Removing PWL point (0.0313018,-1.86638e-08)
v1: Removing PWL point (0.0315017,-1.86638e-08)
v1: Removing PWL point (0.0315018,-1.86638e-08)
v1: Removing PWL point (0.0317018,-1.86638e-08)
v1: Removing PWL point (0.0319018,-1.86638e-08)
v1: Removing PWL point (0.0321018,-1.86638e-08)
v1: Removing PWL point (0.0323018,-1.86638e-08)
v1: Removing PWL point (0.0325018,-1.86638e-08)
v1: Removing PWL point (0.0327018,-1.86638e-08)
v1: Removing PWL point (0.0329018,-1.86638e-08)
v1: Removing PWL point (0.0331018,-1.86638e-08)
v1: Removing PWL point (0.0333018,-1.86638e-08)
v1: Removing PWL point (0.0335018,-1.86638e-08)
v1: Removing PWL point (0.0337018,-1.86638e-08)
v1: Removing PWL point (0.0339018,-1.86638e-08)
v1: Removing PWL point (0.0341018,-1.86638e-08)
v1: Removing PWL point (0.0343018,-1.86638e-08)
v1: Removing PWL point (0.0345018,-1.86638e-08)
v1: Removing PWL point (0.0347018,-1.86638e-08)
v1: Removing PWL point (0.0349018,-1.86638e-08)
v1: Removing PWL point (0.0351018,-1.86638e-08)
v1: Removing PWL point (0.0353018,-1.86638e-08)
v1: Removing PWL point (0.0355018,-1.86638e-08)
v1: Removing PWL point (0.0357018,-1.86638e-08)
v1: Removing PWL point (0.0359018,-1.86638e-08)
v1: Removing PWL point (0.0361018,-1.86638e-08)
v1: Removing PWL point (0.0363018,-1.86638e-08)
v1: Removing PWL point (0.0365018,-1.86638e-08)
v1: Removing PWL point (0.0367018,-1.86638e-08)
v1: Removing PWL point (0.0369018,-1.86638e-08)
v1: Removing PWL point (0.0371018,-1.86638e-08)
v1: Removing PWL point (0.0373018,-1.86638e-08)
v1: Removing PWL point (0.0375018,-1.86638e-08)
v1: Removing PWL point (0.0377018,-1.86638e-08)
v1: Removing PWL point (0.0379018,-1.86638e-08)
v1: Removing PWL point (0.0381018,-1.86638e-08)
v1: Removing PWL point (0.0383018,-1.86638e-08)
v1: Removing PWL point (0.0385018,-1.86638e-08)
v1: Removing PWL point (0.0387018,-1.86638e-08)
v1: Removing PWL point (0.0389018,-1.86638e-08)
v1: Removing PWL point (0.0391018,-1.86638e-08)
v1: Removing PWL point (0.0393018,-1.86638e-08)
v1: Removing PWL point (0.0395018,-1.86638e-08)
v1: Removing PWL point (0.0397018,-1.86638e-08)
v1: Removing PWL point (0.0399018,-1.86638e-08)
v1: Removing PWL point (0.0401018,-1.86638e-08)
v1: Removing PWL point (0.0403018,-1.86638e-08)
v1: Removing PWL point (0.0405018,-1.86638e-08)
v1: Removing PWL point (0.0407018,-1.86638e-08)
v1: Removing PWL point (0.0409018,-1.86638e-08)
v1: Removing PWL point (0.0411018,-1.86638e-08)
v1: Removing PWL point (0.0413018,-1.86638e-08)
v1: Removing PWL point (0.0415018,-1.86638e-08)
v1: Removing PWL point (0.0417018,-1.86638e-08)
v1: Removing PWL point (0.0419018,-1.86638e-08)
v1: Removing PWL point (0.0421018,-1.86638e-08)
v1: Removing PWL point (0.0423018,-1.86638e-08)
v1: Removing PWL point (0.0425018,-1.86638e-08)
v1: Removing PWL point (0.0427018,-1.86638e-08)
v1: Removing PWL point (0.0429018,-1.86638e-08)
v1: Removing PWL point (0.0431018,-1.86638e-08)
v1: Removing PWL point (0.0433018,-1.86638e-08)
v1: Removing PWL point (0.0435018,-1.86638e-08)
v1: Removing PWL point (0.0437018,-1.86638e-08)
v1: Removing PWL point (0.0439018,-1.86638e-08)
v1: Removing PWL point (0.0441018,-1.86638e-08)
v1: Removing PWL point (0.0443018,-1.86638e-08)
v1: Removing PWL point (0.0445018,-1.86638e-08)
v1: Removing PWL point (0.0447018,-1.86638e-08)
v1: Removing PWL point (0.0449018,-1.86638e-08)
v1: Removing PWL point (0.0451018,-1.86638e-08)
v1: Removing PWL point (0.0453018,-1.86638e-08)
v1: Removing PWL point (0.0455018,-1.86638e-08)
v1: Removing PWL point (0.0457018,-1.86638e-08)
v1: Removing PWL point (0.0459018,-1.86638e-08)
v1: Removing PWL point (0.0461018,-1.86638e-08)
v1: Removing PWL point (0.0463018,-1.86638e-08)
v1: Removing PWL point (0.0465018,-1.86638e-08)
v1: Removing PWL point (0.0467018,-1.86638e-08)
v1: Removing PWL point (0.0469018,-1.86638e-08)
v1: Removing PWL point (0.0471018,-1.86638e-08)
v1: Removing PWL point (0.0473018,-1.86638e-08)
v1: Removing PWL point (0.0475018,-1.86638e-08)
v1: Removing PWL point (0.0477018,-1.86638e-08)
v1: Removing PWL point (0.0479018,-1.86638e-08)
v1: Removing PWL point (0.0481018,-1.86638e-08)
v1: Removing PWL point (0.0483018,-1.86638e-08)
v1: Removing PWL point (0.0485018,-1.86638e-08)
v1: Removing PWL point (0.0487018,-1.86638e-08)
v1: Removing PWL point (0.0489018,-1.86638e-08)
v1: Removing PWL point (0.0491018,-1.86638e-08)
v1: Removing PWL point (0.0493018,-1.86638e-08)
v1: Removing PWL point (0.0495018,-1.86638e-08)
v1: Removing PWL point (0.0497018,-1.86638e-08)
v1: Removing PWL point (0.0499018,-1.86638e-08)
v1: Removing PWL point (0.0501018,-1.86638e-08)
v1: Removing PWL point (0.0503018,-1.86638e-08)
v1: Removing PWL point (0.0505018,-1.86638e-08)
v1: Removing PWL point (0.0507018,-1.86638e-08)
v1: Removing PWL point (0.0509018,-1.86638e-08)
v1: Removing PWL point (0.0511018,-1.86638e-08)
v1: Removing PWL point (0.0513018,-1.86638e-08)
v1: Removing PWL point (0.0515018,-1.86638e-08)
v1: Removing PWL point (0.0517018,-1.86638e-08)
v1: Removing PWL point (0.0519018,-1.86638e-08)
v1: Removing PWL point (0.0521018,-1.86638e-08)
v1: Removing PWL point (0.0523018,-1.86638e-08)
v1: Removing PWL point (0.0525018,-1.86638e-08)
v1: Removing PWL point (0.0527018,-1.86638e-08)
v1: Removing PWL point (0.0529018,-1.86638e-08)
v1: Removing PWL point (0.0531018,-1.86638e-08)
v1: Removing PWL point (0.0533018,-1.86638e-08)
v1: Removing PWL point (0.0535018,-1.86638e-08)
v1: Removing PWL point (0.0537018,-1.86638e-08)
v1: Removing PWL point (0.0539018,-1.86638e-08)
v1: Removing PWL point (0.0541018,-1.86638e-08)
v1: Removing PWL point (0.0543018,-1.86638e-08)
v1: Removing PWL point (0.0545018,-1.86638e-08)
v1: Removing PWL point (0.0547018,-1.86638e-08)
v1: Removing PWL point (0.0549018,-1.86638e-08)
v1: Removing PWL point (0.0551018,-1.86638e-08)
v1: Removing PWL point (0.0553018,-1.86638e-08)
v1: Removing PWL point (0.0555018,-1.86638e-08)
v1: Removing PWL point (0.0557018,-1.86638e-08)
v1: Removing PWL point (0.0559018,-1.86638e-08)
v1: Removing PWL point (0.0561018,-1.86638e-08)
v1: Removing PWL point (0.0563018,-1.86638e-08)
v1: Removing PWL point (0.0565018,-1.86638e-08)
v1: Removing PWL point (0.0567018,-1.86638e-08)
v1: Removing PWL point (0.0569018,-1.86638e-08)
v1: Removing PWL point (0.0571018,-1.86638e-08)
v1: Removing PWL point (0.0573018,-1.86638e-08)
v1: Removing PWL point (0.0575018,-1.86638e-08)
v1: Removing PWL point (0.0577018,-1.86638e-08)
v1: Removing PWL point (0.0579018,-1.86638e-08)
v1: Removing PWL point (0.0581018,-1.86638e-08)
v1: Removing PWL point (0.0583018,-1.86638e-08)
v1: Removing PWL point (0.0585018,-1.86638e-08)
v1: Removing PWL point (0.0587018,-1.86638e-08)
v1: Removing PWL point (0.0589018,-1.86638e-08)
v1: Removing PWL point (0.0591018,-1.86638e-08)
v1: Removing PWL point (0.0593018,-1.86638e-08)
v1: Removing PWL point (0.0595018,-1.86638e-08)
v1: Removing PWL point (0.0597018,-1.86638e-08)
v1: Removing PWL point (0.0599018,-1.86638e-08)
v1: Removing PWL point (0.0601018,-1.86638e-08)
v1: Removing PWL point (0.0603018,-1.86638e-08)
v1: Removing PWL point (0.0605018,-1.86638e-08)
v1: Removing PWL point (0.0607018,-1.86638e-08)
v1: Removing PWL point (0.0609018,-1.86638e-08)
v1: Removing PWL point (0.0611018,-1.86638e-08)
v1: Removing PWL point (0.0613018,-1.86638e-08)
v1: Removing PWL point (0.0615018,-1.86638e-08)
v1: Removing PWL point (0.0617018,-1.86638e-08)
v1: Removing PWL point (0.0619018,-1.86638e-08)
v1: Removing PWL point (0.0621018,-1.86638e-08)
v1: Removing PWL point (0.0623018,-1.86638e-08)
v1: Removing PWL point (0.0625018,-1.86638e-08)
v1: Removing PWL point (0.0627018,-1.86638e-08)
v1: Removing PWL point (0.0629018,-1.86638e-08)
v1: Removing PWL point (0.0631018,-1.86638e-08)
v1: Removing PWL point (0.0633018,-1.86638e-08)
v1: Removing PWL point (0.0635018,-1.86638e-08)
v1: Removing PWL point (0.0637018,-1.86638e-08)
v1: Removing PWL point (0.0639018,-1.86638e-08)
v1: Removing PWL point (0.0641018,-1.86638e-08)
v1: Removing PWL point (0.0643018,-1.86638e-08)
v1: Removing PWL point (0.0645018,-1.86638e-08)
v1: Removing PWL point (0.0647018,-1.86638e-08)
v1: Removing PWL point (0.0649018,-1.86638e-08)
v1: Removing PWL point (0.0651018,-1.86638e-08)
v1: Removing PWL point (0.0653018,-1.86638e-08)
v1: Removing PWL point (0.0655018,-1.86638e-08)
v1: Removing PWL point (0.0657018,-1.86638e-08)
v1: Removing PWL point (0.0659018,-1.86638e-08)
v1: Removing PWL point (0.0661018,-1.86638e-08)
v1: Removing PWL point (0.0663018,-1.86638e-08)
v1: Removing PWL point (0.0665018,-1.86638e-08)
v1: Removing PWL point (0.0667018,-1.86638e-08)
v1: Removing PWL point (0.0669018,-1.86638e-08)
v1: Removing PWL point (0.0671018,-1.86638e-08)
v1: Removing PWL point (0.0673018,-1.86638e-08)
v1: Removing PWL point (0.0675018,-1.86638e-08)
v1: Removing PWL point (0.0677018,-1.86638e-08)
v1: Removing PWL point (0.0679018,-1.86638e-08)
v1: Removing PWL point (0.0681018,-1.86638e-08)
v1: Removing PWL point (0.0683018,-1.86638e-08)
v1: Removing PWL point (0.0685018,-1.86638e-08)
v1: Removing PWL point (0.0687018,-1.86638e-08)
v1: Removing PWL point (0.0689018,-1.86638e-08)
v1: Removing PWL point (0.0691018,-1.86638e-08)
v1: Removing PWL point (0.0693018,-1.86638e-08)
v1: Removing PWL point (0.0695018,-1.86638e-08)
v1: Removing PWL point (0.0697018,-1.86638e-08)
v1: Removing PWL point (0.0699018,-1.86638e-08)
v1: Removing PWL point (0.0701018,-1.86638e-08)
v1: Removing PWL point (0.0703018,-1.86638e-08)
v1: Removing PWL point (0.0705018,-1.86638e-08)
v1: Removing PWL point (0.0707018,-1.86638e-08)
v1: Removing PWL point (0.0709018,-1.86638e-08)
v1: Removing PWL point (0.0711018,-1.86638e-08)
v1: Removing PWL point (0.0713018,-1.86638e-08)
v1: Removing PWL point (0.0715018,-1.86638e-08)
v1: Removing PWL point (0.0717018,-1.86638e-08)
v1: Removing PWL point (0.0719018,-1.86638e-08)
v1: Removing PWL point (0.0721018,-1.86638e-08)
v1: Removing PWL point (0.0723018,-1.86638e-08)
v1: Removing PWL point (0.0725018,-1.86638e-08)
v1: Removing PWL point (0.0727018,-1.86638e-08)
v1: Removing PWL point (0.0729018,-1.86638e-08)
v1: Removing PWL point (0.0731018,-1.86638e-08)
v1: Removing PWL point (0.0733018,-1.86638e-08)
v1: Removing PWL point (0.0735018,-1.86638e-08)
v1: Removing PWL point (0.0737018,-1.86638e-08)
v1: Removing PWL point (0.0739018,-1.86638e-08)
v1: Removing PWL point (0.0741018,-1.86638e-08)
v1: Removing PWL point (0.0743018,-1.86638e-08)
v1: Removing PWL point (0.0745018,-1.86638e-08)
v1: Removing PWL point (0.0747018,-1.86638e-08)
v1: Removing PWL point (0.0749018,-1.86638e-08)
v1: Removing PWL point (0.0751018,-1.86638e-08)
v1: Removing PWL point (0.0753018,-1.86638e-08)
v1: Removing PWL point (0.0755018,-1.86638e-08)
v1: Removing PWL point (0.0757018,-1.86638e-08)
v1: Removing PWL point (0.0759018,-1.86638e-08)
v1: Removing PWL point (0.0761018,-1.86638e-08)
v1: Removing PWL point (0.0763018,-1.86638e-08)
v1: Removing PWL point (0.0765018,-1.86638e-08)
v1: Removing PWL point (0.0767018,-1.86638e-08)
v1: Removing PWL point (0.0769018,-1.86638e-08)
v1: Removing PWL point (0.0771018,-1.86638e-08)
v1: Removing PWL point (0.0773018,-1.86638e-08)
v1: Removing PWL point (0.0775018,-1.86638e-08)
v1: Removing PWL point (0.0777018,-1.86638e-08)
v1: Removing PWL point (0.0779018,-1.86638e-08)
v1: Removing PWL point (0.0781018,-1.86638e-08)
v1: Removing PWL point (0.0783018,-1.86638e-08)
v1: Removing PWL point (0.0785018,-1.86638e-08)
v1: Removing PWL point (0.0787018,-1.86638e-08)
v1: Removing PWL point (0.0789018,-1.86638e-08)
v1: Removing PWL point (0.0791018,-1.86638e-08)
v1: Removing PWL point (0.0793018,-1.86638e-08)
v1: Removing PWL point (0.0795018,-1.86638e-08)
v1: Removing PWL point (0.0797018,-1.86638e-08)
v1: Removing PWL point (0.0799018,-1.86638e-08)
v1: Removing PWL point (0.0801018,-1.86638e-08)
v1: Removing PWL point (0.0803018,-1.86638e-08)
v1: Removing PWL point (0.0805018,-1.86638e-08)
v1: Removing PWL point (0.0807018,-1.86638e-08)
v1: Removing PWL point (0.0809018,-1.86638e-08)
v1: Removing PWL point (0.0811018,-1.86638e-08)
v1: Removing PWL point (0.0813018,-1.86638e-08)
v1: Removing PWL point (0.0815018,-1.86638e-08)
v1: Removing PWL point (0.0817018,-1.86638e-08)
v1: Removing PWL point (0.0819018,-1.86638e-08)
v1: Removing PWL point (0.0821018,-1.86638e-08)
v1: Removing PWL point (0.0823018,-1.86638e-08)
v1: Removing PWL point (0.0825018,-1.86638e-08)
v1: Removing PWL point (0.0827018,-1.86638e-08)
v1: Removing PWL point (0.0829018,-1.86638e-08)
v1: Removing PWL point (0.0831018,-1.86638e-08)
v1: Removing PWL point (0.0833018,-1.86638e-08)
v1: Removing PWL point (0.0835018,-1.86638e-08)
v1: Removing PWL point (0.0837018,-1.86638e-08)
v1: Removing PWL point (0.0839018,-1.86638e-08)
v1: Removing PWL point (0.0841018,-1.86638e-08)
v1: Removing PWL point (0.0843018,-1.86638e-08)
v1: Removing PWL point (0.0845018,-1.86638e-08)
v1: Removing PWL point (0.0847018,-1.86638e-08)
v1: Removing PWL point (0.0849018,-1.86638e-08)
v1: Removing PWL point (0.0851018,-1.86638e-08)
v1: Removing PWL point (0.0853018,-1.86638e-08)
v1: Removing PWL point (0.0855018,-1.86638e-08)
v1: Removing PWL point (0.0857018,-1.86638e-08)
v1: Removing PWL point (0.0859018,-1.86638e-08)
v1: Removing PWL point (0.0861018,-1.86638e-08)
v1: Removing PWL point (0.0863018,-1.86638e-08)
v1: Removing PWL point (0.0865018,-1.86638e-08)
v1: Removing PWL point (0.0867018,-1.86638e-08)
v1: Removing PWL point (0.0869018,-1.86638e-08)
v1: Removing PWL point (0.0871018,-1.86638e-08)
v1: Removing PWL point (0.0873018,-1.86638e-08)
v1: Removing PWL point (0.0875018,-1.86638e-08)
v1: Removing PWL point (0.0877018,-1.86638e-08)
v1: Removing PWL point (0.0879018,-1.86638e-08)
v1: Removing PWL point (0.0881018,-1.86638e-08)
v1: Removing PWL point (0.0883018,-1.86638e-08)
v1: Removing PWL point (0.0885018,-1.86638e-08)
v1: Removing PWL point (0.0887018,-1.86638e-08)
v1: Removing PWL point (0.0889018,-1.86638e-08)
v1: Removing PWL point (0.0891018,-1.86638e-08)
v1: Removing PWL point (0.0893018,-1.86638e-08)
v1: Removing PWL point (0.0895018,-1.86638e-08)
v1: Removing PWL point (0.0897018,-1.86638e-08)
v1: Removing PWL point (0.0899018,-1.86638e-08)
v1: Removing PWL point (0.0901018,-1.86638e-08)
v1: Removing PWL point (0.0903018,-1.86638e-08)
v1: Removing PWL point (0.0905018,-1.86638e-08)
v1: Removing PWL point (0.0907018,-1.86638e-08)
v1: Removing PWL point (0.0909018,-1.86638e-08)
v1: Removing PWL point (0.0911018,-1.86638e-08)
v1: Removing PWL point (0.0913018,-1.86638e-08)
v1: Removing PWL point (0.0915018,-1.86638e-08)
v1: Removing PWL point (0.0917018,-1.86638e-08)
v1: Removing PWL point (0.0919018,-1.86638e-08)
v1: Removing PWL point (0.0921018,-1.86638e-08)
v1: Removing PWL point (0.0923018,-1.86638e-08)
v1: Removing PWL point (0.0925018,-1.86638e-08)
v1: Removing PWL point (0.0927018,-1.86638e-08)
v1: Removing PWL point (0.0929018,-1.86638e-08)
v1: Removing PWL point (0.0931018,-1.86638e-08)
v1: Removing PWL point (0.0933018,-1.86638e-08)
v1: Removing PWL point (0.0935017,-1.86638e-08)
v1: Removing PWL point (0.0937017,-1.86638e-08)
v1: Removing PWL point (0.0939017,-1.86638e-08)
v1: Removing PWL point (0.0941017,-1.86638e-08)
v1: Removing PWL point (0.0943017,-1.86638e-08)
v1: Removing PWL point (0.0945017,-1.86638e-08)
v1: Removing PWL point (0.0947017,-1.86638e-08)
v1: Removing PWL point (0.0949017,-1.86638e-08)
v1: Removing PWL point (0.0951017,-1.86638e-08)
v1: Removing PWL point (0.0953017,-1.86638e-08)
v1: Removing PWL point (0.0955017,-1.86638e-08)
v1: Removing PWL point (0.0957017,-1.86638e-08)
v1: Removing PWL point (0.0959017,-1.86638e-08)
v1: Removing PWL point (0.0961017,-1.86638e-08)
v1: Removing PWL point (0.0963017,-1.86638e-08)
v1: Removing PWL point (0.0965017,-1.86638e-08)
v1: Removing PWL point (0.0967017,-1.86638e-08)
v1: Removing PWL point (0.0969017,-1.86638e-08)
v1: Removing PWL point (0.0971017,-1.86638e-08)
v1: Removing PWL point (0.0973017,-1.86638e-08)
v1: Removing PWL point (0.0975017,-1.86638e-08)
v1: Removing PWL point (0.0977017,-1.86638e-08)
v1: Removing PWL point (0.0979017,-1.86638e-08)
v1: Removing PWL point (0.0981017,-1.86638e-08)
v1: Removing PWL point (0.0983017,-1.86638e-08)
v1: Removing PWL point (0.0985017,-1.86638e-08)
v1: Removing PWL point (0.0987017,-1.86638e-08)
v1: Removing PWL point (0.0989017,-1.86638e-08)
v1: Removing PWL point (0.0991017,-1.86638e-08)
v1: Removing PWL point (0.0993017,-1.86638e-08)
v1: Removing PWL point (0.0995017,-1.86638e-08)
v1: Removing PWL point (0.0997017,-1.86638e-08)
v1: Removing PWL point (0.0999017,-1.86638e-08)
v1: Removing PWL point (0.100102,-1.86638e-08)
v1: Removing PWL point (0.100302,-1.86638e-08)
v1: Removing PWL point (0.100502,-1.86638e-08)
v1: Removing PWL point (0.100702,-1.86638e-08)
v1: Removing PWL point (0.100902,-1.86638e-08)
v1: Removing PWL point (0.101102,-1.86638e-08)
v1: Removing PWL point (0.101302,-1.86638e-08)
v1: Removing PWL point (0.101502,-1.86638e-08)
v1: Removing PWL point (0.101702,-1.86638e-08)
v1: Removing PWL point (0.101902,-1.86638e-08)
v1: Removing PWL point (0.102102,-1.86638e-08)
v1: Removing PWL point (0.102302,-1.86638e-08)
v1: Removing PWL point (0.102502,-1.86638e-08)
v1: Removing PWL point (0.102702,-1.86638e-08)
v1: Removing PWL point (0.102902,-1.86638e-08)
v1: Removing PWL point (0.103102,-1.86638e-08)
v1: Removing PWL point (0.103302,-1.86638e-08)
v1: Removing PWL point (0.103502,-1.86638e-08)
v1: Removing PWL point (0.103702,-1.86638e-08)
v1: Removing PWL point (0.103902,-1.86638e-08)
v1: Removing PWL point (0.104102,-1.86638e-08)
v1: Removing PWL point (0.104302,-1.86638e-08)
v1: Removing PWL point (0.104502,-1.86638e-08)
v1: Removing PWL point (0.104702,-1.86638e-08)
v1: Removing PWL point (0.104902,-1.86638e-08)
v1: Removing PWL point (0.105102,-1.86638e-08)
v1: Removing PWL point (0.105302,-1.86638e-08)
v1: Removing PWL point (0.105502,-1.86638e-08)
v1: Removing PWL point (0.105702,-1.86638e-08)
v1: Removing PWL point (0.105902,-1.86638e-08)
v1: Removing PWL point (0.106102,-1.86638e-08)
v1: Removing PWL point (0.106302,-1.86638e-08)
v1: Removing PWL point (0.106502,-1.86638e-08)
v1: Removing PWL point (0.106702,-1.86638e-08)
v1: Removing PWL point (0.106902,-1.86638e-08)
v1: Removing PWL point (0.107102,-1.86638e-08)
v1: Removing PWL point (0.107302,-1.86638e-08)
v1: Removing PWL point (0.107502,-1.86638e-08)
v1: Removing PWL point (0.107702,-1.86638e-08)
v1: Removing PWL point (0.107902,-1.86638e-08)
v1: Removing PWL point (0.108102,-1.86638e-08)
v1: Removing PWL point (0.108302,-1.86638e-08)
v1: Removing PWL point (0.108502,-1.86638e-08)
v1: Removing PWL point (0.108702,-1.86638e-08)
v1: Removing PWL point (0.108902,-1.86638e-08)
v1: Removing PWL point (0.109102,-1.86638e-08)
v1: Removing PWL point (0.109302,-1.86638e-08)
v1: Removing PWL point (0.109502,-1.86638e-08)
v1: Removing PWL point (0.109702,-1.86638e-08)
v1: Removing PWL point (0.109902,-1.86638e-08)
v1: Removing PWL point (0.110102,-1.86638e-08)
v1: Removing PWL point (0.110302,-1.86638e-08)
v1: Removing PWL point (0.110502,-1.86638e-08)
v1: Removing PWL point (0.110702,-1.86638e-08)
v1: Removing PWL point (0.110902,-1.86638e-08)
v1: Removing PWL point (0.111102,-1.86638e-08)
v1: Removing PWL point (0.111302,-1.86638e-08)
v1: Removing PWL point (0.111502,-1.86638e-08)
v1: Removing PWL point (0.111702,-1.86638e-08)
v1: Removing PWL point (0.111902,-1.86638e-08)
v1: Removing PWL point (0.112102,-1.86638e-08)
v1: Removing PWL point (0.1122,-1.86638e-08)
v1: Removing PWL point (0.112302,-1.86638e-08)
v1: Removing PWL point (0.1124,-1.86638e-08)
v1: Removing PWL point (0.1124,-1.86638e-08)
v1: Removing PWL point (0.1124,-1.86638e-08)
v1: Removing PWL point (0.112502,-1.86638e-08)
v1: Removing PWL point (0.1126,-1.86638e-08)
v1: Removing PWL point (0.1126,-1.86638e-08)
v1: Removing PWL point (0.1126,-1.86638e-08)
v1: Removing PWL point (0.112702,-1.86638e-08)
v1: Removing PWL point (0.112702,-1.86638e-08)
v1: Removing PWL point (0.1128,-1.86638e-08)
v1: Removing PWL point (0.1128,-1.86638e-08)
v1: Removing PWL point (0.1128,-1.86638e-08)
v1: Removing PWL point (0.1128,-1.86638e-08)
v1: Removing PWL point (0.1128,-1.86638e-08)
v1: Removing PWL point (0.1128,-1.86638e-08)
v1: Removing PWL point (0.1128,-1.86638e-08)
v1: Removing PWL point (0.112902,-1.86638e-08)
v1: Removing PWL point (0.112902,-1.86638e-08)
v1: Removing PWL point (0.113,-1.86638e-08)
v1: Removing PWL point (0.113,-1.86638e-08)
v1: Removing PWL point (0.113,-1.86638e-08)
v1: Removing PWL point (0.113,-1.86638e-08)
v1: Removing PWL point (0.113,-1.86638e-08)
v1: Removing PWL point (0.113,-1.86638e-08)
v1: Removing PWL point (0.113102,-1.86638e-08)
v1: Removing PWL point (0.113102,-1.86638e-08)
v1: Removing PWL point (0.1132,-1.86638e-08)
v1: Removing PWL point (0.1132,-1.86638e-08)
v1: Removing PWL point (0.1132,-1.86638e-08)
v1: Removing PWL point (0.1132,-1.86638e-08)
v1: Removing PWL point (0.113302,-1.86638e-08)
v1: Removing PWL point (0.113302,-1.86638e-08)
v1: Removing PWL point (0.113502,-1.86638e-08)
v1: Removing PWL point (0.113502,-1.86638e-08)
v1: Removing PWL point (0.113702,-1.86638e-08)
v1: Removing PWL point (0.113702,-1.86638e-08)
v1: Removing PWL point (0.113902,-1.86638e-08)
v1: Removing PWL point (0.113902,-1.86638e-08)
v1: Removing PWL point (0.114102,-1.86638e-08)
v1: Removing PWL point (0.114102,-1.86638e-08)
v1: Removing PWL point (0.114302,-1.86638e-08)
v1: Removing PWL point (0.114302,-1.86638e-08)
v1: Removing PWL point (0.114502,-1.86638e-08)
v1: Removing PWL point (0.114502,-1.86638e-08)
v1: Removing PWL point (0.114702,-1.86638e-08)
v1: Removing PWL point (0.114702,-1.86638e-08)
v1: Removing PWL point (0.114902,-1.86638e-08)
v1: Removing PWL point (0.114902,-1.86638e-08)
v1: Removing PWL point (0.115102,-1.86638e-08)
v1: Removing PWL point (0.115102,-1.86638e-08)
v1: Removing PWL point (0.115302,-1.86638e-08)
v1: Removing PWL point (0.115302,-1.86638e-08)
v1: Removing PWL point (0.115502,-1.86638e-08)
v1: Removing PWL point (0.115502,-1.86638e-08)
v1: Removing PWL point (0.115702,-1.86638e-08)
v1: Removing PWL point (0.115702,-1.86638e-08)
v1: Removing PWL point (0.115902,-1.86638e-08)
v1: Removing PWL point (0.115902,-1.86638e-08)
v1: Removing PWL point (0.116102,-1.86638e-08)
v1: Removing PWL point (0.116102,-1.86638e-08)
v1: Removing PWL point (0.116302,-1.86638e-08)
v1: Removing PWL point (0.116302,-1.86638e-08)
v1: Removing PWL point (0.116502,-1.86638e-08)
v1: Removing PWL point (0.116502,-1.86638e-08)
v1: Removing PWL point (0.116702,-1.86638e-08)
v1: Removing PWL point (0.116702,-1.86638e-08)
v1: Removing PWL point (0.116902,-1.86638e-08)
v1: Removing PWL point (0.116902,-1.86638e-08)
v1: Removing PWL point (0.117102,-1.86638e-08)
v1: Removing PWL point (0.117102,-1.86638e-08)
v1: Removing PWL point (0.117302,-1.86638e-08)
v1: Removing PWL point (0.117302,-1.86638e-08)
v1: Removing PWL point (0.117502,-1.86638e-08)
v1: Removing PWL point (0.117502,-1.86638e-08)
v1: Removing PWL point (0.117702,-1.86638e-08)
v1: Removing PWL point (0.117702,-1.86638e-08)
v1: Removing PWL point (0.117902,-1.86638e-08)
v1: Removing PWL point (0.117902,-1.86638e-08)
v1: Removing PWL point (0.118102,-1.86638e-08)
v1: Removing PWL point (0.118102,-1.86638e-08)
v1: Removing PWL point (0.118302,-1.86638e-08)
v1: Removing PWL point (0.118302,-1.86638e-08)
v1: Removing PWL point (0.118502,-1.86638e-08)
v1: Removing PWL point (0.118502,-1.86638e-08)
v1: Removing PWL point (0.118702,-1.86638e-08)
v1: Removing PWL point (0.118702,-1.86638e-08)
v1: Removing PWL point (0.118902,-1.86638e-08)
v1: Removing PWL point (0.118902,-1.86638e-08)
v1: Removing PWL point (0.119102,-1.86638e-08)
v1: Removing PWL point (0.119102,-1.86638e-08)
v1: Removing PWL point (0.119302,-1.86638e-08)
v1: Removing PWL point (0.119302,-1.86638e-08)
v1: Removing PWL point (0.119502,-1.86638e-08)
v1: Removing PWL point (0.119502,-1.86638e-08)
v1: Removing PWL point (0.119702,-1.86638e-08)
v1: Removing PWL point (0.119702,-1.86638e-08)
v1: Removing PWL point (0.119902,-1.86638e-08)
v1: Removing PWL point (0.119902,-1.86638e-08)
v1: Removing PWL point (0.120102,-1.86638e-08)
v1: Removing PWL point (0.120102,-1.86638e-08)
v1: Removing PWL point (0.120302,-1.86638e-08)
v1: Removing PWL point (0.120302,-1.86638e-08)
v1: Removing PWL point (0.120502,-1.86638e-08)
v1: Removing PWL point (0.120502,-1.86638e-08)
v1: Removing PWL point (0.120702,-1.86638e-08)
v1: Removing PWL point (0.120702,-1.86638e-08)
v1: Removing PWL point (0.120902,-1.86638e-08)
v1: Removing PWL point (0.120902,-1.86638e-08)
v1: Removing PWL point (0.121102,-1.86638e-08)
v1: Removing PWL point (0.121102,-1.86638e-08)
v1: Removing PWL point (0.121302,-1.86638e-08)
v1: Removing PWL point (0.121302,-1.86638e-08)
v1: Removing PWL point (0.121502,-1.86638e-08)
v1: Removing PWL point (0.121502,-1.86638e-08)
v1: Removing PWL point (0.121702,-1.86638e-08)
v1: Removing PWL point (0.121702,-1.86638e-08)
v1: Removing PWL point (0.121902,-1.86638e-08)
v1: Removing PWL point (0.121902,-1.86638e-08)
v1: Removing PWL point (0.122102,-1.86638e-08)
v1: Removing PWL point (0.122102,-1.86638e-08)
v1: Removing PWL point (0.122302,-1.86638e-08)
v1: Removing PWL point (0.122302,-1.86638e-08)
v1: Removing PWL point (0.122502,-1.86638e-08)
v1: Removing PWL point (0.122502,-1.86638e-08)
v1: Removing PWL point (0.122702,-1.86638e-08)
v1: Removing PWL point (0.122702,-1.86638e-08)
v1: Removing PWL point (0.122902,-1.86638e-08)
v1: Removing PWL point (0.122902,-1.86638e-08)
v1: Removing PWL point (0.123102,-1.86638e-08)
v1: Removing PWL point (0.123102,-1.86638e-08)
v1: Removing PWL point (0.123302,-1.86638e-08)
v1: Removing PWL point (0.123302,-1.86638e-08)
v1: Removing PWL point (0.123502,-1.86638e-08)
v1: Removing PWL point (0.123502,-1.86638e-08)
v1: Removing PWL point (0.123702,-1.86638e-08)
v1: Removing PWL point (0.123702,-1.86638e-08)
v1: Removing PWL point (0.123902,-1.86638e-08)
v1: Removing PWL point (0.123902,-1.86638e-08)
v1: Removing PWL point (0.124102,-1.86638e-08)
v1: Removing PWL point (0.124102,-1.86638e-08)
v1: Removing PWL point (0.124302,-1.86638e-08)
v1: Removing PWL point (0.124302,-1.86638e-08)
v1: Removing PWL point (0.124502,-1.86638e-08)
v1: Removing PWL point (0.124502,-1.86638e-08)
v1: Removing PWL point (0.124702,-1.86638e-08)
v1: Removing PWL point (0.124702,-1.86638e-08)
v1: Removing PWL point (0.124902,-1.86638e-08)
v1: Removing PWL point (0.124902,-1.86638e-08)
v1: Removing PWL point (0.125102,-1.86638e-08)
v1: Removing PWL point (0.125102,-1.86638e-08)
v1: Removing PWL point (0.125302,-1.86638e-08)
v1: Removing PWL point (0.125302,-1.86638e-08)
v1: Removing PWL point (0.125502,-1.86638e-08)
v1: Removing PWL point (0.125502,-1.86638e-08)
v1: Removing PWL point (0.125702,-1.86638e-08)
v1: Removing PWL point (0.125702,-1.86638e-08)
v1: Removing PWL point (0.125902,-1.86638e-08)
v1: Removing PWL point (0.125902,-1.86638e-08)
v1: Removing PWL point (0.126102,-1.86638e-08)
v1: Removing PWL point (0.126102,-1.86638e-08)
v1: Removing PWL point (0.126302,-1.86638e-08)
v1: Removing PWL point (0.126302,-1.86638e-08)
v1: Removing PWL point (0.126502,-1.86638e-08)
v1: Removing PWL point (0.126502,-1.86638e-08)
v1: Removing PWL point (0.126702,-1.86638e-08)
v1: Removing PWL point (0.126702,-1.86638e-08)
v1: Removing PWL point (0.126902,-1.86638e-08)
v1: Removing PWL point (0.126902,-1.86638e-08)
v1: Removing PWL point (0.127102,-1.86638e-08)
v1: Removing PWL point (0.127102,-1.86638e-08)
v1: Removing PWL point (0.127302,-1.86638e-08)
v1: Removing PWL point (0.127302,-1.86638e-08)
v1: Removing PWL point (0.127502,-1.86638e-08)
v1: Removing PWL point (0.127502,-1.86638e-08)
v1: Removing PWL point (0.127702,-1.86638e-08)
v1: Removing PWL point (0.127702,-1.86638e-08)
v1: Removing PWL point (0.127902,-1.86638e-08)
v1: Removing PWL point (0.127902,-1.86638e-08)
v1: Removing PWL point (0.128102,-1.86638e-08)
v1: Removing PWL point (0.128102,-1.86638e-08)
v1: Removing PWL point (0.128302,-1.86638e-08)
v1: Removing PWL point (0.128302,-1.86638e-08)
v1: Removing PWL point (0.128502,-1.86638e-08)
v1: Removing PWL point (0.128502,-1.86638e-08)
v1: Removing PWL point (0.128702,-1.86638e-08)
v1: Removing PWL point (0.128702,-1.86638e-08)
v1: Removing PWL point (0.128902,-1.86638e-08)
v1: Removing PWL point (0.128902,-1.86638e-08)
v1: Removing PWL point (0.129102,-1.86638e-08)
v1: Removing PWL point (0.129102,-1.86638e-08)
v1: Removing PWL point (0.129302,-1.86638e-08)
v1: Removing PWL point (0.129302,-1.86638e-08)
v1: Removing PWL point (0.129502,-1.86638e-08)
v1: Removing PWL point (0.129502,-1.86638e-08)
v1: Removing PWL point (0.129702,-1.86638e-08)
v1: Removing PWL point (0.129702,-1.86638e-08)
v1: Removing PWL point (0.129902,-1.86638e-08)
v1: Removing PWL point (0.129902,-1.86638e-08)
v1: Removing PWL point (0.130102,-1.86638e-08)
v1: Removing PWL point (0.130102,-1.86638e-08)
v1: Removing PWL point (0.130302,-1.86638e-08)
v1: Removing PWL point (0.130302,-1.86638e-08)
v1: Removing PWL point (0.130502,-1.86638e-08)
v1: Removing PWL point (0.130502,-1.86638e-08)
v1: Removing PWL point (0.130702,-1.86638e-08)
v1: Removing PWL point (0.130702,-1.86638e-08)
v1: Removing PWL point (0.130902,-1.86638e-08)
v1: Removing PWL point (0.130902,-1.86638e-08)
v1: Removing PWL point (0.131102,-1.86638e-08)
v1: Removing PWL point (0.131102,-1.86638e-08)
v1: Removing PWL point (0.131302,-1.86638e-08)
v1: Removing PWL point (0.131302,-1.86638e-08)
v1: Removing PWL point (0.131502,-1.86638e-08)
v1: Removing PWL point (0.131502,-1.86638e-08)
v1: Removing PWL point (0.131702,-1.86638e-08)
v1: Removing PWL point (0.131702,-1.86638e-08)
v1: Removing PWL point (0.131902,-1.86638e-08)
v1: Removing PWL point (0.131902,-1.86638e-08)
v1: Removing PWL point (0.132102,-1.86638e-08)
v1: Removing PWL point (0.132102,-1.86638e-08)
v1: Removing PWL point (0.132302,-1.86638e-08)
v1: Removing PWL point (0.132302,-1.86638e-08)
v1: Removing PWL point (0.132502,-1.86638e-08)
v1: Removing PWL point (0.132502,-1.86638e-08)
v1: Removing PWL point (0.132702,-1.86638e-08)
v1: Removing PWL point (0.132702,-1.86638e-08)
v1: Removing PWL point (0.132902,-1.86638e-08)
v1: Removing PWL point (0.132902,-1.86638e-08)
v1: Removing PWL point (0.133102,-1.86638e-08)
v1: Removing PWL point (0.133102,-1.86638e-08)
v1: Removing PWL point (0.133302,-1.86638e-08)
v1: Removing PWL point (0.133302,-1.86638e-08)
v1: Removing PWL point (0.133502,-1.86638e-08)
v1: Removing PWL point (0.133502,-1.86638e-08)
v1: Removing PWL point (0.133702,-1.86638e-08)
v1: Removing PWL point (0.133702,-1.86638e-08)
v1: Removing PWL point (0.133902,-1.86638e-08)
v1: Removing PWL point (0.133902,-1.86638e-08)
v1: Removing PWL point (0.134102,-1.86638e-08)
v1: Removing PWL point (0.134102,-1.86638e-08)
v1: Removing PWL point (0.134302,-1.86638e-08)
v1: Removing PWL point (0.134302,-1.86638e-08)
v1: Removing PWL point (0.134502,-1.86638e-08)
v1: Removing PWL point (0.134502,-1.86638e-08)
v1: Removing PWL point (0.134702,-1.86638e-08)
v1: Removing PWL point (0.134702,-1.86638e-08)
v1: Removing PWL point (0.134902,-1.86638e-08)
v1: Removing PWL point (0.134902,-1.86638e-08)
v1: Removing PWL point (0.135102,-1.86638e-08)
v1: Removing PWL point (0.135102,-1.86638e-08)
v1: Removing PWL point (0.135302,-1.86638e-08)
v1: Removing PWL point (0.135302,-1.86638e-08)
v1: Removing PWL point (0.135502,-1.86638e-08)
v1: Removing PWL point (0.135502,-1.86638e-08)
v1: Removing PWL point (0.135702,-1.86638e-08)
v1: Removing PWL point (0.135702,-1.86638e-08)
v1: Removing PWL point (0.135902,-1.86638e-08)
v1: Removing PWL point (0.135902,-1.86638e-08)
v1: Removing PWL point (0.136102,-1.86638e-08)
v1: Removing PWL point (0.136102,-1.86638e-08)
v1: Removing PWL point (0.136302,-1.86638e-08)
v1: Removing PWL point (0.136302,-1.86638e-08)
v1: Removing PWL point (0.136502,-1.86638e-08)
v1: Removing PWL point (0.136502,-1.86638e-08)
v1: Removing PWL point (0.136702,-1.86638e-08)
v1: Removing PWL point (0.136702,-1.86638e-08)
v1: Removing PWL point (0.136902,-1.86638e-08)
v1: Removing PWL point (0.136902,-1.86638e-08)
v1: Removing PWL point (0.137102,-1.86638e-08)
v1: Removing PWL point (0.137102,-1.86638e-08)
v1: Removing PWL point (0.137302,-1.86638e-08)
v1: Removing PWL point (0.137302,-1.86638e-08)
v1: Removing PWL point (0.137502,-1.86638e-08)
v1: Removing PWL point (0.137502,-1.86638e-08)
v1: Removing PWL point (0.137702,-1.86638e-08)
v1: Removing PWL point (0.137702,-1.86638e-08)
v1: Removing PWL point (0.137902,-1.86638e-08)
v1: Removing PWL point (0.137902,-1.86638e-08)
v1: Removing PWL point (0.138102,-1.86638e-08)
v1: Removing PWL point (0.138102,-1.86638e-08)
v1: Removing PWL point (0.138302,-1.86638e-08)
v1: Removing PWL point (0.138302,-1.86638e-08)
v1: Removing PWL point (0.138502,-1.86638e-08)
v1: Removing PWL point (0.138502,-1.86638e-08)
v1: Removing PWL point (0.138702,-1.86638e-08)
v1: Removing PWL point (0.138702,-1.86638e-08)
v1: Removing PWL point (0.138902,-1.86638e-08)
v1: Removing PWL point (0.138902,-1.86638e-08)
v1: Removing PWL point (0.139102,-1.86638e-08)
v1: Removing PWL point (0.139102,-1.86638e-08)
v1: Removing PWL point (0.139302,-1.86638e-08)
v1: Removing PWL point (0.139302,-1.86638e-08)
v1: Removing PWL point (0.139502,-1.86638e-08)
v1: Removing PWL point (0.139502,-1.86638e-08)
v1: Removing PWL point (0.139702,-1.86638e-08)
v1: Removing PWL point (0.139702,-1.86638e-08)
v1: Removing PWL point (0.139902,-1.86638e-08)
v1: Removing PWL point (0.139902,-1.86638e-08)
v1: Removing PWL point (0.140102,-1.86638e-08)
v1: Removing PWL point (0.140102,-1.86638e-08)
v1: Removing PWL point (0.140302,-1.86638e-08)
v1: Removing PWL point (0.140302,-1.86638e-08)
v1: Removing PWL point (0.140502,-1.86638e-08)
v1: Removing PWL point (0.140502,-1.86638e-08)
v1: Removing PWL point (0.140702,-1.86638e-08)
v1: Removing PWL point (0.140702,-1.86638e-08)
v1: Removing PWL point (0.140902,-1.86638e-08)
v1: Removing PWL point (0.140902,-1.86638e-08)
v1: Removing PWL point (0.141102,-1.86638e-08)
v1: Removing PWL point (0.141102,-1.86638e-08)
v1: Removing PWL point (0.141302,-1.86638e-08)
v1: Removing PWL point (0.141302,-1.86638e-08)
v1: Removing PWL point (0.141502,-1.86638e-08)
v1: Removing PWL point (0.141502,-1.86638e-08)
v1: Removing PWL point (0.141702,-1.86638e-08)
v1: Removing PWL point (0.141702,-1.86638e-08)
v1: Removing PWL point (0.141902,-1.86638e-08)
v1: Removing PWL point (0.141902,-1.86638e-08)
v1: Removing PWL point (0.142102,-1.86638e-08)
v1: Removing PWL point (0.142102,-1.86638e-08)
v1: Removing PWL point (0.142302,-1.86638e-08)
v1: Removing PWL point (0.142302,-1.86638e-08)
v1: Removing PWL point (0.142502,-1.86638e-08)
v1: Removing PWL point (0.142502,-1.86638e-08)
v1: Removing PWL point (0.142702,-1.86638e-08)
v1: Removing PWL point (0.142702,-1.86638e-08)
v1: Removing PWL point (0.142902,-1.86638e-08)
v1: Removing PWL point (0.142902,-1.86638e-08)
v1: Removing PWL point (0.143102,-1.86638e-08)
v1: Removing PWL point (0.143102,-1.86638e-08)
v1: Removing PWL point (0.143302,-1.86638e-08)
v1: Removing PWL point (0.143302,-1.86638e-08)
v1: Removing PWL point (0.143502,-1.86638e-08)
v1: Removing PWL point (0.143502,-1.86638e-08)
v1: Removing PWL point (0.143702,-1.86638e-08)
v1: Removing PWL point (0.143702,-1.86638e-08)
v1: Removing PWL point (0.143902,-1.86638e-08)
v1: Removing PWL point (0.143902,-1.86638e-08)
v1: Removing PWL point (0.144102,-1.86638e-08)
v1: Removing PWL point (0.144102,-1.86638e-08)
v1: Removing PWL point (0.144302,-1.86638e-08)
v1: Removing PWL point (0.144302,-1.86638e-08)
v1: Removing PWL point (0.144502,-1.86638e-08)
v1: Removing PWL point (0.144502,-1.86638e-08)
v1: Removing PWL point (0.144702,-1.86638e-08)
v1: Removing PWL point (0.144702,-1.86638e-08)
v1: Removing PWL point (0.144902,-1.86638e-08)
v1: Removing PWL point (0.144902,-1.86638e-08)
v1: Removing PWL point (0.145102,-1.86638e-08)
v1: Removing PWL point (0.145102,-1.86638e-08)
v1: Removing PWL point (0.145302,-1.86638e-08)
v1: Removing PWL point (0.145302,-1.86638e-08)
v1: Removing PWL point (0.145502,-1.86638e-08)
v1: Removing PWL point (0.145502,-1.86638e-08)
v1: Removing PWL point (0.145702,-1.86638e-08)
v1: Removing PWL point (0.145702,-1.86638e-08)
v1: Removing PWL point (0.145902,-1.86638e-08)
v1: Removing PWL point (0.145902,-1.86638e-08)
v1: Removing PWL point (0.146102,-1.86638e-08)
v1: Removing PWL point (0.146102,-1.86638e-08)
v1: Removing PWL point (0.146302,-1.86638e-08)
v1: Removing PWL point (0.146302,-1.86638e-08)
v1: Removing PWL point (0.146502,-1.86638e-08)
v1: Removing PWL point (0.146502,-1.86638e-08)
v1: Removing PWL point (0.146702,-1.86638e-08)
v1: Removing PWL point (0.146702,-1.86638e-08)
v1: Removing PWL point (0.146902,-1.86638e-08)
v1: Removing PWL point (0.146902,-1.86638e-08)
v1: Removing PWL point (0.147102,-1.86638e-08)
v1: Removing PWL point (0.147102,-1.86638e-08)
v1: Removing PWL point (0.147302,-1.86638e-08)
v1: Removing PWL point (0.147302,-1.86638e-08)
v1: Removing PWL point (0.147502,-1.86638e-08)
v1: Removing PWL point (0.147502,-1.86638e-08)
v1: Removing PWL point (0.147702,-1.86638e-08)
v1: Removing PWL point (0.147702,-1.86638e-08)
v1: Removing PWL point (0.147902,-1.86638e-08)
v1: Removing PWL point (0.147902,-1.86638e-08)
v1: Removing PWL point (0.148102,-1.86638e-08)
v1: Removing PWL point (0.148102,-1.86638e-08)
v1: Removing PWL point (0.148302,-1.86638e-08)
v1: Removing PWL point (0.148302,-1.86638e-08)
v1: Removing PWL point (0.148502,-1.86638e-08)
v1: Removing PWL point (0.148502,-1.86638e-08)
v1: Removing PWL point (0.148702,-1.86638e-08)
v1: Removing PWL point (0.148702,-1.86638e-08)
v1: Removing PWL point (0.148902,-1.86638e-08)
v1: Removing PWL point (0.148902,-1.86638e-08)
v1: Removing PWL point (0.149102,-1.86638e-08)
v1: Removing PWL point (0.149102,-1.86638e-08)
v1: Removing PWL point (0.149302,-1.86638e-08)
v1: Removing PWL point (0.149302,-1.86638e-08)
v1: Removing PWL point (0.149502,-1.86638e-08)
v1: Removing PWL point (0.149502,-1.86638e-08)
v1: Removing PWL point (0.149702,-1.86638e-08)
v1: Removing PWL point (0.149702,-1.86638e-08)
v1: Removing PWL point (0.149902,-1.86638e-08)
v1: Removing PWL point (0.149902,-1.86638e-08)
v1: Removing PWL point (0.150102,-1.86638e-08)
v1: Removing PWL point (0.150102,-1.86638e-08)
v1: Removing PWL point (0.150302,-1.86638e-08)
v1: Removing PWL point (0.150302,-1.86638e-08)
v1: Removing PWL point (0.150502,-1.86638e-08)
v1: Removing PWL point (0.150502,-1.86638e-08)
v1: Removing PWL point (0.150702,-1.86638e-08)
v1: Removing PWL point (0.150702,-1.86638e-08)
v1: Removing PWL point (0.150902,-1.86638e-08)
v1: Removing PWL point (0.150902,-1.86638e-08)
v1: Removing PWL point (0.151102,-1.86638e-08)
v1: Removing PWL point (0.151102,-1.86638e-08)
v1: Removing PWL point (0.151302,-1.86638e-08)
v1: Removing PWL point (0.151302,-1.86638e-08)
v1: Removing PWL point (0.151502,-1.86638e-08)
[...]
v1: Removing PWL point (0.287502,-1.86638e-08)
v1: Removing PWL point (0.287702,-1.86638e-08)
v1: Removing PWL point (0.287902,-1.86638e-08)
v1: Removing PWL point (0.288102,-1.86638e-08)
v1: Removing PWL point (0.288302,-1.86638e-08)
v1: Removing PWL point (0.288502,-1.86638e-08)
v1: Removing PWL point (0.288702,-1.86638e-08)
v1: Removing PWL point (0.288902,-1.86638e-08)
v1: Removing PWL point (0.289102,-1.86638e-08)
v1: Removing PWL point (0.289302,-1.86638e-08)
v1: Removing PWL point (0.289502,-1.86638e-08)
v1: Removing PWL point (0.289702,-1.86638e-08)
v1: Removing PWL point (0.289902,-1.86638e-08)
v1: Removing PWL point (0.290102,-1.86638e-08)
v1: Removing PWL point (0.290302,-1.86638e-08)
v1: Removing PWL point (0.290502,-1.86638e-08)
v1: Removing PWL point (0.290702,-1.86638e-08)
v1: Removing PWL point (0.290902,-1.86638e-08)
v1: Removing PWL point (0.291102,-1.86638e-08)
v1: Removing PWL point (0.291302,-1.86638e-08)
v1: Removing PWL point (0.291502,-1.86638e-08)
v1: Removing PWL point (0.291702,-1.86638e-08)
v1: Removing PWL point (0.291902,-1.86638e-08)
v1: Removing PWL point (0.292102,-1.86638e-08)
v1: Removing PWL point (0.292302,-1.86638e-08)
v1: Removing PWL point (0.292502,-1.86638e-08)
v1: Removing PWL point (0.292702,-1.86638e-08)
v1: Removing PWL point (0.292902,-1.86638e-08)
v1: Removing PWL point (0.293102,-1.86638e-08)
v1: Removing PWL point (0.293302,-1.86638e-08)
v1: Removing PWL point (0.293502,-1.86638e-08)
v1: Removing PWL point (0.293702,-1.86638e-08)
v1: Removing PWL point (0.293902,-1.86638e-08)
v1: Removing PWL point (0.294102,-1.86638e-08)
v1: Removing PWL point (0.294302,-1.86638e-08)
v1: Removing PWL point (0.294502,-1.86638e-08)
v1: Removing PWL point (0.294702,-1.86638e-08)
v1: Removing PWL point (0.294902,-1.86638e-08)
v1: Removing PWL point (0.295102,-1.86638e-08)
v1: Removing PWL point (0.295302,-1.86638e-08)
v1: Removing PWL point (0.295502,-1.86638e-08)
v1: Removing PWL point (0.295702,-1.86638e-08)
v1: Removing PWL point (0.295902,-1.86638e-08)
v1: Removing PWL point (0.296102,-1.86638e-08)
v1: Removing PWL point (0.296302,-1.86638e-08)
v1: Removing PWL point (0.296502,-1.86638e-08)
v1: Removing PWL point (0.296702,-1.86638e-08)
v1: Removing PWL point (0.296902,-1.86638e-08)
v1: Removing PWL point (0.297102,-1.86638e-08)
v1: Removing PWL point (0.297302,-1.86638e-08)
v1: Removing PWL point (0.297502,-1.86638e-08)
v1: Removing PWL point (0.297702,-1.86638e-08)
v1: Removing PWL point (0.297902,-1.86638e-08)
v1: Removing PWL point (0.298102,-1.86638e-08)
v1: Removing PWL point (0.298302,-1.86638e-08)
v1: Removing PWL point (0.298502,-1.86638e-08)
v1: Removing PWL point (0.298702,-1.86638e-08)
v1: Removing PWL point (0.298902,-1.86638e-08)
v1: Removing PWL point (0.299102,-1.86638e-08)
v1: Removing PWL point (0.299302,-1.86638e-08)
v1: Removing PWL point (0.299502,-1.86638e-08)
v1: Removing PWL point (0.299702,-1.86638e-08)
v1: Removing PWL point (0.299902,-1.86638e-08)
v1: Removing PWL point (0.300102,-1.86638e-08)
v1: Removing PWL point (0.300302,-1.86638e-08)
v1: Removing PWL point (0.300502,-1.86638e-08)
v1: Removing PWL point (0.300702,-1.86638e-08)
v1: Removing PWL point (0.300902,-1.86638e-08)
v1: Removing PWL point (0.301102,-1.86638e-08)
v1: Removing PWL point (0.301302,-1.86638e-08)
v1: Removing PWL point (0.301502,-1.86638e-08)
v1: Removing PWL point (0.301702,-1.86638e-08)
v1: Removing PWL point (0.301902,-1.86638e-08)
v1: Removing PWL point (0.302102,-1.86638e-08)
v1: Removing PWL point (0.302302,-1.86638e-08)
v1: Removing PWL point (0.302502,-1.86638e-08)
v1: Removing PWL point (0.302702,-1.86638e-08)
v1: Removing PWL point (0.302902,-1.86638e-08)
v1: Removing PWL point (0.303102,-1.86638e-08)
v1: Removing PWL point (0.303302,-1.86638e-08)
v1: Removing PWL point (0.303502,-1.86638e-08)
v1: Removing PWL point (0.303702,-1.86638e-08)
v1: Removing PWL point (0.303902,-1.86638e-08)
v1: Removing PWL point (0.304102,-1.86638e-08)
v1: Removing PWL point (0.304302,-1.86638e-08)
v1: Removing PWL point (0.304502,-1.86638e-08)
v1: Removing PWL point (0.304702,-1.86638e-08)
v1: Removing PWL point (0.304902,-1.86638e-08)
v1: Removing PWL point (0.305102,-1.86638e-08)
v1: Removing PWL point (0.305302,-1.86638e-08)
v1: Removing PWL point (0.305502,-1.86638e-08)
v1: Removing PWL point (0.305702,-1.86638e-08)
v1: Removing PWL point (0.305902,-1.86638e-08)
v1: Removing PWL point (0.306102,-1.86638e-08)
v1: Removing PWL point (0.306302,-1.86638e-08)
v1: Removing PWL point (0.306502,-1.86638e-08)
v1: Removing PWL point (0.306702,-1.86638e-08)
v1: Removing PWL point (0.306902,-1.86638e-08)
v1: Removing PWL point (0.307102,-1.86638e-08)
v1: Removing PWL point (0.307302,-1.86638e-08)
v1: Removing PWL point (0.307502,-1.86638e-08)
v1: Removing PWL point (0.307702,-1.86638e-08)
v1: Removing PWL point (0.307902,-1.86638e-08)
v1: Removing PWL point (0.308102,-1.86638e-08)
v1: Removing PWL point (0.308302,-1.86638e-08)
v1: Removing PWL point (0.308502,-1.86638e-08)
v1: Removing PWL point (0.308702,-1.86638e-08)
v1: Removing PWL point (0.308902,-1.86638e-08)
v1: Removing PWL point (0.309102,-1.86638e-08)
v1: Removing PWL point (0.309302,-1.86638e-08)
v1: Removing PWL point (0.309502,-1.86638e-08)
v1: Removing PWL point (0.309702,-1.86638e-08)
v1: Removing PWL point (0.309902,-1.86638e-08)
v1: Removing PWL point (0.310102,-1.86638e-08)
v1: Removing PWL point (0.310302,-1.86638e-08)
v1: Removing PWL point (0.310502,-1.86638e-08)
v1: Removing PWL point (0.310702,-1.86638e-08)
v1: Removing PWL point (0.310902,-1.86638e-08)
v1: Removing PWL point (0.311102,-1.86638e-08)
v1: Removing PWL point (0.311302,-1.86638e-08)
v1: Removing PWL point (0.311502,-1.86638e-08)
v1: Removing PWL point (0.311702,-1.86638e-08)
v1: Removing PWL point (0.311902,-1.86638e-08)
v1: Removing PWL point (0.312102,-1.86638e-08)
v1: Removing PWL point (0.3122,-1.86638e-08)
v1: Removing PWL point (0.3122,-1.86638e-08)
v1: Removing PWL point (0.312302,-1.86638e-08)
v1: Removing PWL point (0.312502,-1.86638e-08)
v1: Removing PWL point (0.312702,-1.86638e-08)
v1: Removing PWL point (0.3128,-1.86638e-08)
v1: Removing PWL point (0.312902,-1.86638e-08)
v1: Removing PWL point (0.312902,-1.86638e-08)
v1: Removing PWL point (0.313,-1.86638e-08)
v1: Removing PWL point (0.313,-1.86638e-08)
v1: Removing PWL point (0.313,-1.86638e-08)
v1: Removing PWL point (0.313,-1.86638e-08)
v1: Removing PWL point (0.313,-1.86638e-08)
v1: Removing PWL point (0.313,-1.86638e-08)
v1: Removing PWL point (0.313102,-1.86638e-08)
v1: Removing PWL point (0.313102,-1.86638e-08)
v1: Removing PWL point (0.3132,-1.86638e-08)
v1: Removing PWL point (0.3132,-1.86638e-08)
v1: Removing PWL point (0.3132,-1.86638e-08)
v1: Removing PWL point (0.3132,-1.86638e-08)
v1: Removing PWL point (0.3132,-1.86638e-08)
v1: Removing PWL point (0.3132,-1.86638e-08)
v1: Removing PWL point (0.313302,-1.86638e-08)
v1: Removing PWL point (0.313302,-1.86638e-08)
v1: Removing PWL point (0.3134,-1.86638e-08)
v1: Removing PWL point (0.3134,-1.86638e-08)
v1: Removing PWL point (0.3134,-1.86638e-08)
v1: Removing PWL point (0.313502,-1.86638e-08)
v1: Removing PWL point (0.313502,-1.86638e-08)
v1: Removing PWL point (0.313702,-1.86638e-08)
v1: Removing PWL point (0.313702,-1.86638e-08)
v1: Removing PWL point (0.313902,-1.86638e-08)
v1: Removing PWL point (0.313902,-1.86638e-08)
v1: Removing PWL point (0.314102,-1.86638e-08)
v1: Removing PWL point (0.314102,-1.86638e-08)
v1: Removing PWL point (0.314302,-1.86638e-08)
v1: Removing PWL point (0.314302,-1.86638e-08)
v1: Removing PWL point (0.314502,-1.86638e-08)
v1: Removing PWL point (0.314502,-1.86638e-08)
v1: Removing PWL point (0.314702,-1.86638e-08)
v1: Removing PWL point (0.314702,-1.86638e-08)
v1: Removing PWL point (0.314902,-1.86638e-08)
v1: Removing PWL point (0.314902,-1.86638e-08)
v1: Removing PWL point (0.315102,-1.86638e-08)
v1: Removing PWL point (0.315102,-1.86638e-08)
v1: Removing PWL point (0.315302,-1.86638e-08)
v1: Removing PWL point (0.315302,-1.86638e-08)
v1: Removing PWL point (0.315502,-1.86638e-08)
v1: Removing PWL point (0.315502,-1.86638e-08)
v1: Removing PWL point (0.315702,-1.86638e-08)
v1: Removing PWL point (0.315702,-1.86638e-08)
v1: Removing PWL point (0.315902,-1.86638e-08)
v1: Removing PWL point (0.315902,-1.86638e-08)
v1: Removing PWL point (0.316102,-1.86638e-08)
v1: Removing PWL point (0.316102,-1.86638e-08)
v1: Removing PWL point (0.316302,-1.86638e-08)
v1: Removing PWL point (0.316302,-1.86638e-08)
v1: Removing PWL point (0.316502,-1.86638e-08)
v1: Removing PWL point (0.316502,-1.86638e-08)
v1: Removing PWL point (0.316702,-1.86638e-08)
v1: Removing PWL point (0.316702,-1.86638e-08)
v1: Removing PWL point (0.316902,-1.86638e-08)
v1: Removing PWL point (0.316902,-1.86638e-08)
v1: Removing PWL point (0.317102,-1.86638e-08)
v1: Removing PWL point (0.317102,-1.86638e-08)
v1: Removing PWL point (0.317302,-1.86638e-08)
v1: Removing PWL point (0.317302,-1.86638e-08)
v1: Removing PWL point (0.317502,-1.86638e-08)
v1: Removing PWL point (0.317502,-1.86638e-08)
v1: Removing PWL point (0.317702,-1.86638e-08)
v1: Removing PWL point (0.317702,-1.86638e-08)
v1: Removing PWL point (0.317902,-1.86638e-08)
v1: Removing PWL point (0.317902,-1.86638e-08)
v1: Removing PWL point (0.318102,-1.86638e-08)
v1: Removing PWL point (0.318102,-1.86638e-08)
v1: Removing PWL point (0.318302,-1.86638e-08)
v1: Removing PWL point (0.318302,-1.86638e-08)
v1: Removing PWL point (0.318502,-1.86638e-08)
v1: Removing PWL point (0.318502,-1.86638e-08)
v1: Removing PWL point (0.318702,-1.86638e-08)
v1: Removing PWL point (0.318702,-1.86638e-08)
v1: Removing PWL point (0.318902,-1.86638e-08)
v1: Removing PWL point (0.318902,-1.86638e-08)
v1: Removing PWL point (0.319102,-1.86638e-08)
v1: Removing PWL point (0.319102,-1.86638e-08)
v1: Removing PWL point (0.319302,-1.86638e-08)
v1: Removing PWL point (0.319302,-1.86638e-08)
v1: Removing PWL point (0.319502,-1.86638e-08)
v1: Removing PWL point (0.319502,-1.86638e-08)
v1: Removing PWL point (0.319702,-1.86638e-08)
v1: Removing PWL point (0.319702,-1.86638e-08)
v1: Removing PWL point (0.319902,-1.86638e-08)
v1: Removing PWL point (0.319902,-1.86638e-08)
v1: Removing PWL point (0.320102,-1.86638e-08)
v1: Removing PWL point (0.320102,-1.86638e-08)
v1: Removing PWL point (0.320302,-1.86638e-08)
v1: Removing PWL point (0.320302,-1.86638e-08)
v1: Removing PWL point (0.320502,-1.86638e-08)
v1: Removing PWL point (0.320502,-1.86638e-08)
v1: Removing PWL point (0.320702,-1.86638e-08)
v1: Removing PWL point (0.320702,-1.86638e-08)
v1: Removing PWL point (0.320902,-1.86638e-08)
v1: Removing PWL point (0.320902,-1.86638e-08)
v1: Removing PWL point (0.321102,-1.86638e-08)
v1: Removing PWL point (0.321102,-1.86638e-08)
v1: Removing PWL point (0.321302,-1.86638e-08)
v1: Removing PWL point (0.321302,-1.86638e-08)
v1: Removing PWL point (0.321502,-1.86638e-08)
v1: Removing PWL point (0.321502,-1.86638e-08)
v1: Removing PWL point (0.321702,-1.86638e-08)
v1: Removing PWL point (0.321702,-1.86638e-08)
v1: Removing PWL point (0.321902,-1.86638e-08)
v1: Removing PWL point (0.321902,-1.86638e-08)
v1: Removing PWL point (0.322102,-1.86638e-08)
v1: Removing PWL point (0.322102,-1.86638e-08)
v1: Removing PWL point (0.322302,-1.86638e-08)
v1: Removing PWL point (0.322302,-1.86638e-08)
v1: Removing PWL point (0.322502,-1.86638e-08)
v1: Removing PWL point (0.322502,-1.86638e-08)
v1: Removing PWL point (0.322702,-1.86638e-08)
v1: Removing PWL point (0.322702,-1.86638e-08)
v1: Removing PWL point (0.322902,-1.86638e-08)
v1: Removing PWL point (0.322902,-1.86638e-08)
v1: Removing PWL point (0.323102,-1.86638e-08)
v1: Removing PWL point (0.323102,-1.86638e-08)
v1: Removing PWL point (0.323302,-1.86638e-08)
v1: Removing PWL point (0.323302,-1.86638e-08)
v1: Removing PWL point (0.323502,-1.86638e-08)
v1: Removing PWL point (0.323502,-1.86638e-08)
v1: Removing PWL point (0.323702,-1.86638e-08)
v1: Removing PWL point (0.323702,-1.86638e-08)
v1: Removing PWL point (0.323902,-1.86638e-08)
v1: Removing PWL point (0.323902,-1.86638e-08)
v1: Removing PWL point (0.324102,-1.86638e-08)
v1: Removing PWL point (0.324102,-1.86638e-08)
v1: Removing PWL point (0.324302,-1.86638e-08)
v1: Removing PWL point (0.324302,-1.86638e-08)
v1: Removing PWL point (0.324502,-1.86638e-08)
v1: Removing PWL point (0.324502,-1.86638e-08)
v1: Removing PWL point (0.324702,-1.86638e-08)
v1: Removing PWL point (0.324702,-1.86638e-08)
v1: Removing PWL point (0.324902,-1.86638e-08)
v1: Removing PWL point (0.324902,-1.86638e-08)
v1: Removing PWL point (0.325102,-1.86638e-08)
v1: Removing PWL point (0.325102,-1.86638e-08)
v1: Removing PWL point (0.325302,-1.86638e-08)
v1: Removing PWL point (0.325302,-1.86638e-08)
v1: Removing PWL point (0.325502,-1.86638e-08)
v1: Removing PWL point (0.325502,-1.86638e-08)
v1: Removing PWL point (0.325702,-1.86638e-08)
v1: Removing PWL point (0.325702,-1.86638e-08)
v1: Removing PWL point (0.325902,-1.86638e-08)
v1: Removing PWL point (0.325902,-1.86638e-08)
v1: Removing PWL point (0.326102,-1.86638e-08)
v1: Removing PWL point (0.326102,-1.86638e-08)
v1: Removing PWL point (0.326302,-1.86638e-08)
v1: Removing PWL point (0.326302,-1.86638e-08)
v1: Removing PWL point (0.326502,-1.86638e-08)
v1: Removing PWL point (0.326502,-1.86638e-08)
v1: Removing PWL point (0.326702,-1.86638e-08)
v1: Removing PWL point (0.326702,-1.86638e-08)
v1: Removing PWL point (0.326902,-1.86638e-08)
v1: Removing PWL point (0.326902,-1.86638e-08)
v1: Removing PWL point (0.327102,-1.86638e-08)
v1: Removing PWL point (0.327102,-1.86638e-08)
v1: Removing PWL point (0.327302,-1.86638e-08)
v1: Removing PWL point (0.327302,-1.86638e-08)
v1: Removing PWL point (0.327502,-1.86638e-08)
v1: Removing PWL point (0.327502,-1.86638e-08)
v1: Removing PWL point (0.327702,-1.86638e-08)
v1: Removing PWL point (0.327702,-1.86638e-08)
v1: Removing PWL point (0.327902,-1.86638e-08)
v1: Removing PWL point (0.327902,-1.86638e-08)
v1: Removing PWL point (0.328102,-1.86638e-08)
v1: Removing PWL point (0.328102,-1.86638e-08)
v1: Removing PWL point (0.328302,-1.86638e-08)
v1: Removing PWL point (0.328302,-1.86638e-08)
v1: Removing PWL point (0.328502,-1.86638e-08)
v1: Removing PWL point (0.328502,-1.86638e-08)
v1: Removing PWL point (0.328702,-1.86638e-08)
v1: Removing PWL point (0.328702,-1.86638e-08)
v1: Removing PWL point (0.328902,-1.86638e-08)
v1: Removing PWL point (0.328902,-1.86638e-08)
v1: Removing PWL point (0.329102,-1.86638e-08)
v1: Removing PWL point (0.329102,-1.86638e-08)
v1: Removing PWL point (0.329302,-1.86638e-08)
v1: Removing PWL point (0.329302,-1.86638e-08)
v1: Removing PWL point (0.329502,-1.86638e-08)
v1: Removing PWL point (0.329502,-1.86638e-08)
v1: Removing PWL point (0.329702,-1.86638e-08)
v1: Removing PWL point (0.329702,-1.86638e-08)
v1: Removing PWL point (0.329902,-1.86638e-08)
v1: Removing PWL point (0.329902,-1.86638e-08)
v1: Removing PWL point (0.330102,-1.86638e-08)
v1: Removing PWL point (0.330102,-1.86638e-08)
v1: Removing PWL point (0.330302,-1.86638e-08)
v1: Removing PWL point (0.330302,-1.86638e-08)
v1: Removing PWL point (0.330502,-1.86638e-08)
v1: Removing PWL point (0.330502,-1.86638e-08)
v1: Removing PWL point (0.330702,-1.86638e-08)
v1: Removing PWL point (0.330702,-1.86638e-08)
v1: Removing PWL point (0.330902,-1.86638e-08)
v1: Removing PWL point (0.330902,-1.86638e-08)
v1: Removing PWL point (0.331102,-1.86638e-08)
v1: Removing PWL point (0.331102,-1.86638e-08)
v1: Removing PWL point (0.331302,-1.86638e-08)
v1: Removing PWL point (0.331302,-1.86638e-08)
v1: Removing PWL point (0.331502,-1.86638e-08)
v1: Removing PWL point (0.331502,-1.86638e-08)
v1: Removing PWL point (0.331702,-1.86638e-08)
v1: Removing PWL point (0.331702,-1.86638e-08)
v1: Removing PWL point (0.331902,-1.86638e-08)
v1: Removing PWL point (0.331902,-1.86638e-08)
v1: Removing PWL point (0.332102,-1.86638e-08)
v1: Removing PWL point (0.332102,-1.86638e-08)
v1: Removing PWL point (0.332302,-1.86638e-08)
v1: Removing PWL point (0.332302,-1.86638e-08)
v1: Removing PWL point (0.332502,-1.86638e-08)
v1: Removing PWL point (0.332502,-1.86638e-08)
v1: Removing PWL point (0.332702,-1.86638e-08)
v1: Removing PWL point (0.332702,-1.86638e-08)
v1: Removing PWL point (0.332902,-1.86638e-08)
v1: Removing PWL point (0.332902,-1.86638e-08)
v1: Removing PWL point (0.333102,-1.86638e-08)
v1: Removing PWL point (0.333102,-1.86638e-08)
v1: Removing PWL point (0.333302,-1.86638e-08)
v1: Removing PWL point (0.333302,-1.86638e-08)
v1: Removing PWL point (0.333502,-1.86638e-08)
v1: Removing PWL point (0.333502,-1.86638e-08)
v1: Removing PWL point (0.333702,-1.86638e-08)
v1: Removing PWL point (0.333702,-1.86638e-08)
v1: Removing PWL point (0.333902,-1.86638e-08)
v1: Removing PWL point (0.333902,-1.86638e-08)
v1: Removing PWL point (0.334102,-1.86638e-08)
v1: Removing PWL point (0.334102,-1.86638e-08)
v1: Removing PWL point (0.334302,-1.86638e-08)
v1: Removing PWL point (0.334302,-1.86638e-08)
v1: Removing PWL point (0.334502,-1.86638e-08)
v1: Removing PWL point (0.334502,-1.86638e-08)
v1: Removing PWL point (0.334702,-1.86638e-08)
v1: Removing PWL point (0.334702,-1.86638e-08)
v1: Removing PWL point (0.334902,-1.86638e-08)
v1: Removing PWL point (0.334902,-1.86638e-08)
v1: Removing PWL point (0.335102,-1.86638e-08)
v1: Removing PWL point (0.335102,-1.86638e-08)
v1: Removing PWL point (0.335302,-1.86638e-08)
v1: Removing PWL point (0.335302,-1.86638e-08)
v1: Removing PWL point (0.335502,-1.86638e-08)
v1: Removing PWL point (0.335502,-1.86638e-08)
v1: Removing PWL point (0.335702,-1.86638e-08)
v1: Removing PWL point (0.335702,-1.86638e-08)
v1: Removing PWL point (0.335902,-1.86638e-08)
v1: Removing PWL point (0.335902,-1.86638e-08)
v1: Removing PWL point (0.336102,-1.86638e-08)
v1: Removing PWL point (0.336102,-1.86638e-08)
v1: Removing PWL point (0.336302,-1.86638e-08)
v1: Removing PWL point (0.336302,-1.86638e-08)
v1: Removing PWL point (0.336502,-1.86638e-08)
v1: Removing PWL point (0.336502,-1.86638e-08)
v1: Removing PWL point (0.336702,-1.86638e-08)
v1: Removing PWL point (0.336702,-1.86638e-08)
v1: Removing PWL point (0.336902,-1.86638e-08)
v1: Removing PWL point (0.336902,-1.86638e-08)
v1: Removing PWL point (0.337102,-1.86638e-08)
v1: Removing PWL point (0.337102,-1.86638e-08)
v1: Removing PWL point (0.337302,-1.86638e-08)
v1: Removing PWL point (0.337302,-1.86638e-08)
v1: Removing PWL point (0.337502,-1.86638e-08)
v1: Removing PWL point (0.337502,-1.86638e-08)
v1: Removing PWL point (0.337702,-1.86638e-08)
v1: Removing PWL point (0.337702,-1.86638e-08)
v1: Removing PWL point (0.337902,-1.86638e-08)
v1: Removing PWL point (0.337902,-1.86638e-08)
v1: Removing PWL point (0.338102,-1.86638e-08)
v1: Removing PWL point (0.338102,-1.86638e-08)
v1: Removing PWL point (0.338302,-1.86638e-08)
v1: Removing PWL point (0.338302,-1.86638e-08)
v1: Removing PWL point (0.338502,-1.86638e-08)
v1: Removing PWL point (0.338502,-1.86638e-08)
v1: Removing PWL point (0.338702,-1.86638e-08)
v1: Removing PWL point (0.338702,-1.86638e-08)
v1: Removing PWL point (0.338902,-1.86638e-08)
v1: Removing PWL point (0.338902,-1.86638e-08)
v1: Removing PWL point (0.339102,-1.86638e-08)
v1: Removing PWL point (0.339102,-1.86638e-08)
v1: Removing PWL point (0.339302,-1.86638e-08)
v1: Removing PWL point (0.339302,-1.86638e-08)
v1: Removing PWL point (0.339502,-1.86638e-08)
v1: Removing PWL point (0.339502,-1.86638e-08)
v1: Removing PWL point (0.339702,-1.86638e-08)
v1: Removing PWL point (0.339702,-1.86638e-08)
v1: Removing PWL point (0.339902,-1.86638e-08)
v1: Removing PWL point (0.339902,-1.86638e-08)
Direct Newton iteration for .op point succeeded.

Date: Fri Apr 21 21:17:34 2023
Total elapsed time: 63.045 seconds.

tnom = 27
temp = 27
method = modified trap
totiter = 10233231
traniter = 10233228
tranpoints = 5116615
accept = 5116615
rejected = 0
matrix size = 6
fillins = 0
solver = Normal
Avg thread counts: 1.0/1.0/1.0/1.0
Matrix Compiler1: off  [0.1]/0.1/0.1
Matrix Compiler2: 266 bytes object code size  0.1/0.1/[0.1]

