Circuit: * C:\Users\Vladimir Villamizar\Documents\rtuindustrial\Standards (Orcad and LTspice)\IEC 61000-4-5 (Surge)\45.asc

WARNING: Specified period is not longer than the sum of Trise, Tfall, and Ton for v2.  Increasing period to 0.000500002
Direct Newton iteration for .op point succeeded.

Date: Sun Jul  9 08:37:21 2023
Total elapsed time: 0.042 seconds.

tnom = 27
temp = 27
method = modified trap
totiter = 2400
traniter = 2397
tranpoints = 1151
accept = 1124
rejected = 27
matrix size = 8
fillins = 0
solver = Normal
Avg thread counts: 1.4/1.8/1.8/1.4
Matrix Compiler1: 246 bytes object code size  0.2/0.2/[0.1]
Matrix Compiler2: 512 bytes object code size  0.1/0.2/[0.1]

